file 247245 1692752819                                          
version 2
run Default-0-20230822-22:06:45-9630
attr configname Default
attr datetime 20230822-22:06:45
attr experiment Default
attr inifile omnetpp.ini
attr iterationvars ""
attr iterationvarsf ""
attr measurement ""
attr network RSUExampleScenario
attr processid 9630
attr repetition 0
attr replication #0
attr resultdir results
attr runnumber 0
attr seedset 0
param *.playgroundSizeX 2500m
param *.playgroundSizeY 2500m
param *.playgroundSizeZ 50m
param *.annotations.draw true
param *.obstacles.obstacles "xmldoc(\"config.xml\", \"//AnalogueModel[@type='SimpleObstacleShadowing']/obstacles\")"
param *.manager.updateInterval 1s
param *.manager.host "\"localhost\""
param *.manager.port 9999
param *.manager.autoShutdown true
param *.manager.launchConfig "xmldoc(\"erlangen.launchd.xml\")"
param *.rsu[0].mobility.x 2000
param *.rsu[0].mobility.y 2000
param *.rsu[0].mobility.z 3
param *.rsu[*].applType "\"TraCIDemoRSU11p\""
param *.rsu[*].appl.headerLength "80 bit"
param *.rsu[*].appl.sendBeacons false
param *.rsu[*].appl.dataOnSch false
param *.rsu[*].appl.beaconInterval 1s
param *.rsu[*].appl.beaconUserPriority 7
param *.rsu[*].appl.dataUserPriority 5
param *.rsu[*].nic.phy80211p.antennaOffsetZ "0 m"
param *.connectionManager.sendDirect true
param *.connectionManager.maxInterfDist 2600m
param *.connectionManager.drawMaxIntfDist false
param *.**.nic.mac1609_4.useServiceChannel false
param *.**.nic.mac1609_4.txPower 20mW
param *.**.nic.mac1609_4.bitrate 6Mbps
param *.**.nic.phy80211p.minPowerLevel -200dBm
param *.**.nic.phy80211p.useNoiseFloor true
param *.**.nic.phy80211p.noiseFloor -98dBm
param *.**.nic.phy80211p.decider "xmldoc(\"config.xml\")"
param *.**.nic.phy80211p.analogueModels "xmldoc(\"config.xml\")"
param *.**.nic.phy80211p.usePropagationDelay true
param *.**.nic.phy80211p.antenna "xmldoc(\"antenna.xml\", \"/root/Antenna[@id='monopole']\")"
param *.node[*].nic.phy80211p.antennaOffsetY "0 m"
param *.node[*].nic.phy80211p.antennaOffsetZ "1.895 m"
param *.node[*].applType "\"TraCIDemo11p\""
param *.node[*].appl.headerLength "80 bit"
param *.node[*].appl.sendBeacons false
param *.node[*].appl.dataOnSch false
param *.node[*].appl.beaconInterval 1s
param *.node[*].veinsmobility.x 0
param *.node[*].veinsmobility.y 0
param *.node[*].veinsmobility.z 0
param *.node[*].veinsmobility.setHostSpeed false
param *.node[*0].veinsmobility.accidentCount 1
param *.node[*0].veinsmobility.accidentStart 73s
param *.node[*0].veinsmobility.accidentDuration 50s

vector 0 RSUExampleScenario.node[0].veinsmobility posx ETV
vector 1 RSUExampleScenario.node[0].veinsmobility posy ETV
vector 2 RSUExampleScenario.node[0].veinsmobility speed ETV
vector 3 RSUExampleScenario.node[0].veinsmobility acceleration ETV
vector 4 RSUExampleScenario.node[0].veinsmobility co2emission ETV
vector 5 RSUExampleScenario.node[1].veinsmobility posx ETV
vector 6 RSUExampleScenario.node[1].veinsmobility posy ETV
vector 7 RSUExampleScenario.node[1].veinsmobility speed ETV
vector 8 RSUExampleScenario.node[1].veinsmobility acceleration ETV
vector 9 RSUExampleScenario.node[1].veinsmobility co2emission ETV
vector 10 RSUExampleScenario.node[2].veinsmobility posx ETV
vector 11 RSUExampleScenario.node[2].veinsmobility posy ETV
vector 12 RSUExampleScenario.node[2].veinsmobility speed ETV
vector 13 RSUExampleScenario.node[2].veinsmobility acceleration ETV
vector 14 RSUExampleScenario.node[2].veinsmobility co2emission ETV
vector 15 RSUExampleScenario.node[3].veinsmobility posx ETV
vector 16 RSUExampleScenario.node[3].veinsmobility posy ETV
vector 17 RSUExampleScenario.node[3].veinsmobility speed ETV
vector 18 RSUExampleScenario.node[3].veinsmobility acceleration ETV
vector 19 RSUExampleScenario.node[3].veinsmobility co2emission ETV
vector 20 RSUExampleScenario.node[4].veinsmobility posx ETV
vector 21 RSUExampleScenario.node[4].veinsmobility posy ETV
vector 22 RSUExampleScenario.node[4].veinsmobility speed ETV
vector 23 RSUExampleScenario.node[4].veinsmobility acceleration ETV
vector 24 RSUExampleScenario.node[4].veinsmobility co2emission ETV
vector 25 RSUExampleScenario.node[5].veinsmobility posx ETV
vector 26 RSUExampleScenario.node[5].veinsmobility posy ETV
vector 27 RSUExampleScenario.node[5].veinsmobility speed ETV
vector 28 RSUExampleScenario.node[5].veinsmobility acceleration ETV
vector 29 RSUExampleScenario.node[5].veinsmobility co2emission ETV
vector 30 RSUExampleScenario.node[6].veinsmobility posx ETV
vector 31 RSUExampleScenario.node[6].veinsmobility posy ETV
vector 32 RSUExampleScenario.node[6].veinsmobility speed ETV
vector 33 RSUExampleScenario.node[6].veinsmobility acceleration ETV
vector 34 RSUExampleScenario.node[6].veinsmobility co2emission ETV
vector 35 RSUExampleScenario.node[7].veinsmobility posx ETV
vector 36 RSUExampleScenario.node[7].veinsmobility posy ETV
vector 37 RSUExampleScenario.node[7].veinsmobility speed ETV
vector 38 RSUExampleScenario.node[7].veinsmobility acceleration ETV
vector 39 RSUExampleScenario.node[7].veinsmobility co2emission ETV
vector 40 RSUExampleScenario.node[8].veinsmobility posx ETV
vector 41 RSUExampleScenario.node[8].veinsmobility posy ETV
vector 42 RSUExampleScenario.node[8].veinsmobility speed ETV
vector 43 RSUExampleScenario.node[8].veinsmobility acceleration ETV
vector 44 RSUExampleScenario.node[8].veinsmobility co2emission ETV
vector 45 RSUExampleScenario.node[9].veinsmobility posx ETV
vector 46 RSUExampleScenario.node[9].veinsmobility posy ETV
vector 47 RSUExampleScenario.node[9].veinsmobility speed ETV
vector 48 RSUExampleScenario.node[9].veinsmobility acceleration ETV
vector 49 RSUExampleScenario.node[9].veinsmobility co2emission ETV
vector 50 RSUExampleScenario.node[10].veinsmobility posx ETV
vector 51 RSUExampleScenario.node[10].veinsmobility posy ETV
vector 52 RSUExampleScenario.node[10].veinsmobility speed ETV
vector 53 RSUExampleScenario.node[10].veinsmobility acceleration ETV
vector 54 RSUExampleScenario.node[10].veinsmobility co2emission ETV
vector 55 RSUExampleScenario.node[11].veinsmobility posx ETV
vector 56 RSUExampleScenario.node[11].veinsmobility posy ETV
vector 57 RSUExampleScenario.node[11].veinsmobility speed ETV
vector 58 RSUExampleScenario.node[11].veinsmobility acceleration ETV
vector 59 RSUExampleScenario.node[11].veinsmobility co2emission ETV
vector 60 RSUExampleScenario.node[12].veinsmobility posx ETV
vector 61 RSUExampleScenario.node[12].veinsmobility posy ETV
vector 62 RSUExampleScenario.node[12].veinsmobility speed ETV
vector 63 RSUExampleScenario.node[12].veinsmobility acceleration ETV
vector 64 RSUExampleScenario.node[12].veinsmobility co2emission ETV
vector 65 RSUExampleScenario.node[13].veinsmobility posx ETV
vector 66 RSUExampleScenario.node[13].veinsmobility posy ETV
vector 67 RSUExampleScenario.node[13].veinsmobility speed ETV
vector 68 RSUExampleScenario.node[13].veinsmobility acceleration ETV
vector 69 RSUExampleScenario.node[13].veinsmobility co2emission ETV
vector 70 RSUExampleScenario.node[14].veinsmobility posx ETV
vector 71 RSUExampleScenario.node[14].veinsmobility posy ETV
vector 72 RSUExampleScenario.node[14].veinsmobility speed ETV
vector 73 RSUExampleScenario.node[14].veinsmobility acceleration ETV
vector 74 RSUExampleScenario.node[14].veinsmobility co2emission ETV
vector 75 RSUExampleScenario.node[15].veinsmobility posx ETV
vector 76 RSUExampleScenario.node[15].veinsmobility posy ETV
vector 77 RSUExampleScenario.node[15].veinsmobility speed ETV
vector 78 RSUExampleScenario.node[15].veinsmobility acceleration ETV
vector 79 RSUExampleScenario.node[15].veinsmobility co2emission ETV
vector 80 RSUExampleScenario.node[16].veinsmobility posx ETV
vector 81 RSUExampleScenario.node[16].veinsmobility posy ETV
vector 82 RSUExampleScenario.node[16].veinsmobility speed ETV
vector 83 RSUExampleScenario.node[16].veinsmobility acceleration ETV
vector 84 RSUExampleScenario.node[16].veinsmobility co2emission ETV
vector 85 RSUExampleScenario.node[17].veinsmobility posx ETV
vector 86 RSUExampleScenario.node[17].veinsmobility posy ETV
vector 87 RSUExampleScenario.node[17].veinsmobility speed ETV
vector 88 RSUExampleScenario.node[17].veinsmobility acceleration ETV
vector 89 RSUExampleScenario.node[17].veinsmobility co2emission ETV
vector 90 RSUExampleScenario.node[18].veinsmobility posx ETV
vector 91 RSUExampleScenario.node[18].veinsmobility posy ETV
vector 92 RSUExampleScenario.node[18].veinsmobility speed ETV
vector 93 RSUExampleScenario.node[18].veinsmobility acceleration ETV
vector 94 RSUExampleScenario.node[18].veinsmobility co2emission ETV
vector 95 RSUExampleScenario.node[19].veinsmobility posx ETV
vector 96 RSUExampleScenario.node[19].veinsmobility posy ETV
vector 97 RSUExampleScenario.node[19].veinsmobility speed ETV
vector 98 RSUExampleScenario.node[19].veinsmobility acceleration ETV
vector 99 RSUExampleScenario.node[19].veinsmobility co2emission ETV
vector 100 RSUExampleScenario.node[20].veinsmobility posx ETV
vector 101 RSUExampleScenario.node[20].veinsmobility posy ETV
vector 102 RSUExampleScenario.node[20].veinsmobility speed ETV
vector 103 RSUExampleScenario.node[20].veinsmobility acceleration ETV
vector 104 RSUExampleScenario.node[20].veinsmobility co2emission ETV
vector 105 RSUExampleScenario.node[21].veinsmobility posx ETV
vector 106 RSUExampleScenario.node[21].veinsmobility posy ETV
vector 107 RSUExampleScenario.node[21].veinsmobility speed ETV
vector 108 RSUExampleScenario.node[21].veinsmobility acceleration ETV
vector 109 RSUExampleScenario.node[21].veinsmobility co2emission ETV
vector 110 RSUExampleScenario.node[22].veinsmobility posx ETV
vector 111 RSUExampleScenario.node[22].veinsmobility posy ETV
vector 112 RSUExampleScenario.node[22].veinsmobility speed ETV
vector 113 RSUExampleScenario.node[22].veinsmobility acceleration ETV
vector 114 RSUExampleScenario.node[22].veinsmobility co2emission ETV
vector 115 RSUExampleScenario.node[23].veinsmobility posx ETV
vector 116 RSUExampleScenario.node[23].veinsmobility posy ETV
vector 117 RSUExampleScenario.node[23].veinsmobility speed ETV
vector 118 RSUExampleScenario.node[23].veinsmobility acceleration ETV
vector 119 RSUExampleScenario.node[23].veinsmobility co2emission ETV
vector 120 RSUExampleScenario.node[24].veinsmobility posx ETV
vector 121 RSUExampleScenario.node[24].veinsmobility posy ETV
vector 122 RSUExampleScenario.node[24].veinsmobility speed ETV
vector 123 RSUExampleScenario.node[24].veinsmobility acceleration ETV
vector 124 RSUExampleScenario.node[24].veinsmobility co2emission ETV
vector 125 RSUExampleScenario.node[25].veinsmobility posx ETV
vector 126 RSUExampleScenario.node[25].veinsmobility posy ETV
vector 127 RSUExampleScenario.node[25].veinsmobility speed ETV
vector 128 RSUExampleScenario.node[25].veinsmobility acceleration ETV
vector 129 RSUExampleScenario.node[25].veinsmobility co2emission ETV
vector 130 RSUExampleScenario.node[26].veinsmobility posx ETV
vector 131 RSUExampleScenario.node[26].veinsmobility posy ETV
vector 132 RSUExampleScenario.node[26].veinsmobility speed ETV
vector 133 RSUExampleScenario.node[26].veinsmobility acceleration ETV
vector 134 RSUExampleScenario.node[26].veinsmobility co2emission ETV
vector 135 RSUExampleScenario.node[27].veinsmobility posx ETV
vector 136 RSUExampleScenario.node[27].veinsmobility posy ETV
vector 137 RSUExampleScenario.node[27].veinsmobility speed ETV
vector 138 RSUExampleScenario.node[27].veinsmobility acceleration ETV
vector 139 RSUExampleScenario.node[27].veinsmobility co2emission ETV
vector 140 RSUExampleScenario.node[28].veinsmobility posx ETV
vector 141 RSUExampleScenario.node[28].veinsmobility posy ETV
vector 142 RSUExampleScenario.node[28].veinsmobility speed ETV
vector 143 RSUExampleScenario.node[28].veinsmobility acceleration ETV
vector 144 RSUExampleScenario.node[28].veinsmobility co2emission ETV
vector 145 RSUExampleScenario.node[29].veinsmobility posx ETV
vector 146 RSUExampleScenario.node[29].veinsmobility posy ETV
vector 147 RSUExampleScenario.node[29].veinsmobility speed ETV
vector 148 RSUExampleScenario.node[29].veinsmobility acceleration ETV
vector 149 RSUExampleScenario.node[29].veinsmobility co2emission ETV
vector 150 RSUExampleScenario.node[30].veinsmobility posx ETV
vector 151 RSUExampleScenario.node[30].veinsmobility posy ETV
vector 152 RSUExampleScenario.node[30].veinsmobility speed ETV
vector 153 RSUExampleScenario.node[30].veinsmobility acceleration ETV
vector 154 RSUExampleScenario.node[30].veinsmobility co2emission ETV
vector 155 RSUExampleScenario.node[31].veinsmobility posx ETV
vector 156 RSUExampleScenario.node[31].veinsmobility posy ETV
vector 157 RSUExampleScenario.node[31].veinsmobility speed ETV
vector 158 RSUExampleScenario.node[31].veinsmobility acceleration ETV
vector 159 RSUExampleScenario.node[31].veinsmobility co2emission ETV
vector 160 RSUExampleScenario.node[32].veinsmobility posx ETV
vector 161 RSUExampleScenario.node[32].veinsmobility posy ETV
vector 162 RSUExampleScenario.node[32].veinsmobility speed ETV
vector 163 RSUExampleScenario.node[32].veinsmobility acceleration ETV
vector 164 RSUExampleScenario.node[32].veinsmobility co2emission ETV
vector 165 RSUExampleScenario.node[33].veinsmobility posx ETV
vector 166 RSUExampleScenario.node[33].veinsmobility posy ETV
vector 167 RSUExampleScenario.node[33].veinsmobility speed ETV
vector 168 RSUExampleScenario.node[33].veinsmobility acceleration ETV
vector 169 RSUExampleScenario.node[33].veinsmobility co2emission ETV
0	13407 2580 2 4831 1 102 102 2140.3209259163 2450.6248001783 235490.85507688 545358481.36205
1	15987 2585 2 4831 1 102 102 1578.4613427464 2120.9360540062 198416.25494824 389469970.8219
2	18572 2167 4 4831 2 102 101 0 13.999815066161 943.71909598505 12648.253410083
3	20739 2282 18 4831 3 102 100 -4.5 2.2078255666373 -4.1061966058897 110.56483724702
4	23021 2212 18 4831 3 102 100 0.973 8.9023657158011 208.33698852533 671.55282708634
5	25233 2515 20 4831 4 102 99 2144.6306210222 2450.4780716181 229236.0142544 532337549.69889
6	27748 2510 20 4831 4 102 99 1578.4506684253 2120.5707901428 192206.84716587 376641124.09897
7	30258 2339 39 4831 5 102 98 0 13.998578815588 939.07391637638 12478.368568499
8	32597 2507 41 4831 6 102 97 -4.4608324981877 2.0360211738362 -4.0332649588119 83.705955559476
9	35104 2234 41 4831 6 102 97 0.973 8.4455276517466 202.98267089274 639.76159241517
10	37338 2537 60 4831 7 102 96 2148.9403159113 2450.659299592 222864.1596663 518792803.95264
11	39875 2538 60 4831 7 102 96 1578.4476927174 2120.9589145361 186110.13794763 364227301.40025
12	42413 2423 62 4831 8 102 95 0 13.997537077854 934.04233396153 12391.739699851
13	44836 2581 87 4831 9 102 94 -4.439656564949 1.9953480610903 -3.930963162637 79.503348652355
14	47417 2287 87 4831 9 102 94 0.973 8.2469806235914 199.45284284699 640.26059386684
15	49704 2463 89 4831 10 102 93 2153.2500108459 2450.5176811377 216481.92075118 505209211.52284
16	52167 2471 89 4831 10 102 93 1578.4548774119 2120.90069908 179984.8589855 351695169.5747
17	54638 2397 119 4831 11 102 92 0 13.999869057706 929.2191624876 12331.201732433
18	57035 2553 121 4831 12 102 91 -4.4516438954996 2.1600366940722 -4.0076977833542 82.267439428574
19	59588 2224 121 4831 12 102 91 0.973 8.3694083781091 197.01485056743 653.54229193891
20	61812 2391 151 4831 13 102 90 2157.5597056779 2450.2645866362 210462.29158977 493275534.80171
21	64203 2390 151 4831 13 102 90 1578.4413889889 2120.7883864809 173027.37630237 336043624.62616
22	66593 2358 153 4831 14 102 89 0 13.998410794288 923.58438959381 11987.410810982
23	68951 2518 189 4831 15 102 88 -3.0438156671366 2.2053875824949 -4.1202440707026 74.691877053123
24	71469 2202 189 4831 15 102 88 0.973 8.3105242583869 189.2360623828 589.13367079451
25	73671 2314 191 4831 16 102 87 2161.8694058611 2450.2291497608 203878.23837835 478796291.83594
26	75985 2310 191 4831 16 102 87 1578.4544820301 2120.7722106203 167275.61424607 324895535.1792
27	78295 2316 231 4831 17 102 86 1.6232804043733e-05 13.998108282317 918.9447980011 12071.010278249
28	80611 2452 233 4831 18 102 85 -2.7630936457253 2.2240570376068 -4.112528270846 74.851214031406
29	83063 2112 233 4831 18 102 85 0.973 8.8530434321966 189.62554799582 650.64697627804
30	85175 2240 273 4831 19 102 84 2166.1792949471 2450.4280289282 197458.19821465 465056329.61814
31	87415 2234 273 4831 19 102 84 1578.4572625495 2120.8566767089 160922.25149248 311511376.88074
32	89649 2224 275 4831 20 102 83 0.00025793168373781 13.993053698211 913.37292519139 11958.766824662
33	91873 2356 320 4831 21 102 82 -4.5 2.2806860777922 -4.0671141747292 82.242702037657
34	94229 2061 320 4831 21 102 82 0.973 7.9969762628647 185.37057119226 613.38955251624
35	96290 2155 322 4831 22 102 81 2170.7122488867 2450.4365012295 192270.00787747 456970000.44291
36	98445 2161 322 4831 22 102 81 1578.4561478766 2120.6625616178 152900.56738158 291742633.26391
37	100606 2137 369 4831 23 102 80 0.27582330561417 13.993188831017 908.31924313276 11056.438897706
38	102743 2287 371 4831 24 102 79 -4.094616017928 2.2555459074327 -3.7850509610984 75.821874117902
39	105030 2027 371 4831 24 102 79 0.973 7.8139621935621 173.81017655149 520.11197059089
40	107057 2079 418 4831 25 102 78 2176.4901010997 2450.3239084678 185459.05557515 441467741.94691
41	109136 2082 418 4831 25 102 78 1578.4503688179 2120.8294082657 147308.87617337 281183468.32733
42	111218 2054 420 4831 26 102 77 1.5461624629234 13.993341588627 901.43105706236 11156.380587526
43	113272 2175 470 4831 27 102 76 -2.5356489940785 2.2392650089366 -2.5181921585158 69.767347099488
44	115447 1879 470 4831 27 102 76 0.973 8.1642209683009 174.23651842469 610.80237309639
45	117326 2001 472 4831 28 102 75 2185.108514625 2450.5540833102 178635.20602174 425908439.74118
46	119327 2001 472 4831 28 102 75 1578.4516975414 2120.7816550871 141643.91112173 270366929.38157
47	121328 1974 523 4831 29 102 74 3.4133266829552 13.97994910137 892.95555378396 11285.619893702
48	123302 2083 525 4831 30 102 73 -2.1823455372089 2.1636936872965 -0.46956056235704 63.991824352259
49	125385 1814 525 4831 30 102 73 0.973 8.0769545765064 172.74629845754 621.27871341144
50	127199 1923 576 4831 31 102 72 2196.0450926562 2450.3828549772 171737.91189138 410006606.26979
51	129122 1923 576 4831 31 102 72 1578.4486005865 2120.7048463169 135864.29469364 259133195.55573
52	131045 1897 578 4831 32 102 71 4.1947202222332 13.991812187003 882.05013816144 11382.551175466
53	132942 2005 637 4831 33 102 70 -3.1158763178945 2.2461710704397 1.0215471565228 64.990581699669
54	134947 1756 637 4831 33 102 70 0.973 8.8976355453378 171.47629898907 639.26830236793
55	136703 1849 639 4831 34 102 69 2210.4193341617 2450.2307157078 164903.9522781 394396705.99982
56	138552 1849 639 4831 34 102 69 1578.4356359942 2120.7787246909 129610.44661926 246118340.13811
57	140401 1818 700 4831 35 102 68 3.8489417596173 13.999926172604 868.55015599837 11423.51804718
58	142219 1943 702 4831 36 102 67 -3.7792833418176 2.3961217227788 3.5180079361839 62.158056568821
59	144162 1728 702 4831 36 102 67 0.973 8.73746890554 165.68348036292 592.13972100285
60	145890 1769 767 4831 37 102 66 2242.3268998727 2450.6306422632 158312.68577935 379929259.02039
61	147659 1767 767 4831 37 102 66 1578.451217806 2120.9544738783 123097.25874078 232066688.20867
62	149426 1743 769 4831 38 102 65 3.9219617499206 13.999378900521 839.59082715826 11131.589638123
63	151169 1835 839 4831 39 102 64 -4.5 2.0558448842494 9.7177297830795 51.218264776187
64	153004 1686 839 4831 39 102 64 0.973 8.3627117543138 161.95106409195 567.78861959824
65	154690 1692 841 4831 40 102 63 2276.774470355 2450.1499671022 151505.33325664 364478417.21296
66	156382 1683 841 4831 40 102 63 1578.4448455973 2120.7275958713 116996.12651437 219563260.0481
67	158065 1663 909 4831 41 102 62 4.0161385181755 13.998249822583 804.50464670523 10721.398179411
68	159728 1771 911 4831 42 102 61 -2.3446006342261 2.0804082644917 9.9473503434449 41.474940342176
69	161499 1598 911 4831 42 102 61 0.973 8.5606523284014 158.29112217976 572.55595467902
70	163097 1612 986 4831 43 102 60 2311.8954141469 2450.6330954138 144596.02825954 348560868.97088
71	164709 1612 986 4831 43 102 60 1578.4619682319 2120.9468805185 110862.10122734 206937840.94845
72	166321 1591 988 4831 44 102 59 3.9992962979057 13.999124200887 770.41157060765 10330.82150855
73	167912 1693 1071 4831 45 102 58 -3.8456400924426 2.1980071439291 9.9439588530015 51.606801321385
74	169605 1541 1071 4831 45 102 58 0.973 8.7718288962126 154.51902405509 592.42043985482
75	171146 1536 1073 4831 46 102 57 2334.3497222776 2450.6169209509 137622.43450969 332350865.9942
76	172682 1540 1073 4831 46 102 57 1578.4567965213 2120.9324051496 104509.16705532 193480848.76643
77	174222 1512 1154 4831 47 102 56 4.1510441398274 13.996701665553 728.34202569229 9742.2248958891
78	175734 1600 1156 4831 48 102 55 -4.4635479538827 2.0671690396545 9.7391106350112 53.142923695617
79	177334 1451 1156 4831 48 102 55 0.973 8.0918748703575 147.88943464094 568.81346107922
80	178785 1452 1236 4831 49 102 54 2334.7865815668 2450.5254289502 130520.2302318 315536778.44468
81	180237 1455 1236 4831 49 102 54 1578.4441374587 2120.651791947 98089.290706592 179781365.0139
82	181692 1429 1238 4831 50 102 53 3.8447853377257 13.994805302613 685.07449833774 9137.0731336231
83	183121 1505 1318 4831 51 102 52 -4.4674361181588 2.078282451923 10.044694327383 50.934004932948
84	184626 1373 1318 4831 51 102 52 0.973 8.7472268623497 140.99379016181 538.69786901456
85	185999 1373 1320 4831 52 102 51 2333.8836589833 2450.3597394241 122923.55368006 296354254.78062
86	187372 1371 1320 4831 52 102 51 1578.4585047252 1996.1412508478 89180.328188361 156710608.52885
87	188743 1343 1409 4831 53 102 50 3.8698786158062 12.0609251697 530.85388365179 5784.192250228
88	190086 1426 1411 4831 54 102 49 -2.7754211128362 2.0160195135884 8.1382142996452 26.408187595065
89	191512 1306 1411 4831 54 102 49 0.973 6.7330751485819 108.82320996401 317.87675389432
90	192818 1293 1504 4831 55 102 48 2334.635949342 2450.4524190207 115692.12506297 278917922.14088
91	194111 1294 1504 4831 55 102 48 1578.4678993914 1978.9509327244 83745.315887451 146765902.70159
92	195405 1270 1506 4831 56 102 47 4.0700236807532 12.951351441674 512.40936673609 5753.6362460706
93	196675 1324 1604 4831 57 102 46 -1.9890481690938 2.3297191780875 7.969677851493 37.410063338849
94	197999 1175 1604 4831 57 102 46 0.973 8.3363783621892 109.16681340499 419.64677860636
95	199174 1207 1606 4831 58 102 45 2334.0024995889 2450.4624753713 108484.86895211 261595397.73668
96	200381 1214 1606 4831 58 102 45 1578.4570502462 1961.693191967 78261.427843531 136676712.37345
97	201595 1187 1713 4831 59 102 44 3.8447639940612 13.489648629711 496.05523739747 5795.4217126065
98	202782 1237 1715 4831 60 102 43 -1.7387635858037 2.222100084126 8.1207970536015 37.958120994981
99	204019 1051 1715 4831 60 102 43 0.973 8.3204552480567 105.94868704854 439.42220780051
100	205070 1174 1820 4831 61 102 42 2334.2278371524 2450.3554975685 101238.88670243 244088148.08846
101	206244 1172 1820 4831 61 102 42 1578.4478435991 1944.2871475788 72787.929899232 126627889.10189
102	207416 1144 1822 4831 62 102 41 4.018615917157 13.970749160051 479.65431614009 5845.363047284
103	208560 1194 1929 4831 63 102 40 -2.198287774594 2.1492465194734 8.0632372396517 45.225500781905
104	209754 1031 1929 4831 63 102 40 0.973 8.1667304192483 108.44831757008 487.66093014036
105	210785 1089 1931 4831 64 102 39 2333.8926936223 2450.141462352 93847.044908487 225882762.74068
106	211874 1090 1931 4831 64 102 39 1578.4634011481 1921.3090848066 67004.441894759 115498904.13166
107	212964 1060 2045 4831 65 102 38 4.2842987557744 13.993739581739 456.36141980741 5686.7453912515
108	214024 1106 2047 4831 66 102 37 -2.965684290064 2.279591250075 9.2202957220737 42.41057206522
109	215130 1005 2047 4831 66 102 37 0.973 8.0062312204286 104.35918271551 426.93426976753
110	216135 1006 2166 4831 67 102 36 2334.1342350811 2448.1333831074 86609.630513636 208415270.36484
111	217141 1009 2166 4831 67 102 36 1578.4618975855 1893.6940353522 61540.938956625 105496957.23245
112	218150 978 2168 4831 68 102 35 4.1832233416825 13.990375978411 429.22147718674 5503.1642565026
113	219128 1013 2288 4831 69 102 34 -2.4922948446457 2.2485749843647 9.7623216577991 47.955331570759
114	220141 913 2288 4831 69 102 34 0.973 7.8311198804753 104.54259086711 485.34540430322
115	221054 920 2290 4831 70 102 33 2334.510232391 2440.66622612 78942.058809735 188884479.29196
116	221974 921 2290 4831 70 102 33 1578.4517848091 1791.0059018834 55187.055500805 92407620.622099
117	222895 898 2418 4831 71 102 32 4.0859593419879 12.486085439863 325.40845953294 3412.7499030274
118	223793 926 2420 4831 72 102 31 -1.8757059074481 2.0294341745344 8.3666349954206 24.013579884681
119	224719 848 2420 4831 72 102 31 0.973 7.429044537753 77.21907956755 273.22074217996
120	225567 840 2552 4831 73 102 30 2334.0507973665 2439.1980376891 71725.902469572 171521517.62108
121	226407 843 2552 4831 73 102 30 1578.4505975069 1770.6932276143 50029.945801709 83522903.573245
122	227250 809 2555 4831 74 102 29 4.0735588402093 13.683893160937 305.80274316267 3378.2637815335
123	228059 824 2691 4831 75 102 28 -1.3746847264637 2.2564944986859 9.0438457673207 32.562679855492
124	228883 707 2691 4831 75 102 28 0.973 8.3392083846763 77.220538042712 375.35060679749
125	229590 755 2693 4831 76 102 27 2334.4174806303 2437.2743745921 64517.850504954 154196689.19266
126	230345 753 2693 4831 76 102 27 1578.4519604994 1747.6917531434 44876.835802128 74660624.948148
127	231098 728 2835 4831 77 102 26 4.0635240824116 13.976336714074 282.86705822569 3267.0425109434
128	231826 736 2837 4831 78 102 25 -1.5678357862427 2.0509393013455 9.8452186339521 36.787914477585
129	232562 602 2837 4831 78 102 25 0.973 8.6102118406059 79.014103077449 426.20567208821
130	233164 673 2982 4831 79 102 24 2334.9106088879 2433.0455016424 57264.145034884 136655043.6618
131	233837 672 2982 4831 79 102 24 1578.4618988531 1719.8636188591 39681.392273545 65664390.54534
132	234509 646 2984 4831 80 102 23 4.0267229073465 13.562368140693 253.59330720039 2969.6041921788
133	235155 643 3133 4831 81 102 22 -1.800034765683 2.108396035193 7.9481041759541 32.848627833568
134	235798 569 3133 4831 81 102 22 0.973 7.7976945860273 68.452426279108 328.09419629124
135	236367 590 3135 4831 82 102 21 2334.6822450395 2424.6962694111 50005.926575617 119092391.88569
136	236957 591 3135 4831 82 102 21 1578.4479903299 1701.0174454451 34559.483169879 56919406.387589
137	237548 560 3285 4831 83 102 20 3.8169569386458 13.981699167432 228.23330874099 2801.6532475831
138	238108 558 3287 4831 84 102 19 -2.3598040740222 2.009175325504 3.0546797824006 29.802457621124
139	238666 483 3287 4831 84 102 19 0.973 7.7541670228011 55.302487067844 245.05077390921
140	239149 507 3435 4831 85 102 18 2334.4833669321 2414.8736667775 42757.407317886 101578490.49106
141	239656 507 3435 4831 85 102 18 1578.4518036256 1698.6390887247 29468.994962788 48280530.118146
142	240163 478 3437 4831 86 102 17 4.0343364698305 13.983295602682 203.80753553477 2602.8416139794
143	240641 475 3590 4831 87 102 16 -2.2929350401719 2.0824805266107 7.5887373774469 23.659964042762
144	241116 440 3590 4831 87 102 16 0.973 8.0447510818254 53.31036537152 248.90849812654
145	241556 418 3592 4831 88 102 15 2334.5638607559 2414.8836325099 35603.147505956 84517019.397152
146	241974 423 3592 4831 88 102 15 1578.4481442608 1691.8338095853 24372.338540579 39622560.928866
147	242397 394 3756 4831 89 102 14 4.0013211675714 13.999199340187 164.24157892001 2086.6669756642
148	242791 387 3758 4831 90 102 13 -0.037083219131455 2.1844902744796 9.9742162853732 19.051273673278
149	243178 367 3758 4831 90 102 13 1.9101876746331 8.6397759745869 48.603623573564 250.1431827482
150	243545 338 3926 4831 91 102 12 2334.3695889099 2414.8606245739 28552.307941403 67945092.815052
151	243883 339 3926 4831 91 102 12 1578.4565926548 1662.2041921625 19331.70868924 31152274.069279
152	244222 311 3928 4831 92 102 11 4.0929231651139 13.969999221691 123.35420339066 1518.0511249366
153	244533 296 4099 4831 93 102 10 -0.096632594228721 2.0382161270757 9.7804434623488 19.421055363126
154	244829 280 4099 4831 93 102 10 1.7028330357734 8.880686804981 42.17399076741 241.6186241682
155	245109 254 4101 4831 94 102 9 2359.3950672023 2414.8345383538 21527.365125527 51494963.316537
156	245363 255 4101 4831 94 102 9 1578.4661713783 1629.9346987093 14380.240234669 22979611.432098
157	245618 225 4280 4831 95 102 8 4.2052558286512 13.920034354662 81.484769419879 932.60489963423
158	245843 201 4282 4831 96 102 7 0.014833142575785 2.0160379633773 9.7147785260109 18.712820292353
159	246044 197 4282 4831 96 102 7 2.0766261205432 8.7639896884138 36.021555397926 225.24336801523
160	246241 171 4462 4831 97 102 6 2388.7267279918 2414.8810770222 14421.816190065 34665284.817034
161	246412 171 4462 4831 97 102 6 1578.4490826223 1600.2257672166 9518.3260334386 15100120.347676
162	246583 142 4464 4831 98 102 5 3.9195603011693 11.659319502495 38.852385910515 339.362900883
163	246725 115 4644 4831 99 102 4 1.8851872012438 1.9845499222889 7.7397592013261 14.984927176834
164	246840 115 4644 4831 99 102 4 4.0453611473868 7.3820588240483 22.752266462748 135.31804157817
165	246955 87 4646 4831 100 102 3 2407.2993464565 2414.8650521714 7234.0904522932 17444050.651998
166	247042 86 4646 4831 100 102 3 1578.4549668636 1581.414263376 4739.4033820163 7487319.2914545
167	247128 58 4829 4831 101 102 2 3.9747482432421 5.9205547706802 9.8953030139223 50.85159238978
168	247186 29 4831 4831 102 102 1 1.9458065274381 1.9458065274381 1.9458065274381 3.7861630422207
169	247215 29 4831 4831 102 102 1 4.1911604728786 4.1911604728786 4.1911604728786 17.56582610942

