version 2
run Default-0-20230823-15:11:16-9881
attr configname Default
attr datetime 20230823-15:11:16
attr experiment Default
attr inifile omnetpp.ini
attr iterationvars ""
attr iterationvarsf ""
attr measurement ""
attr network RSUExampleScenario
attr processid 9881
attr repetition 0
attr replication #0
attr resultdir results
attr runnumber 0
attr seedset 0
param *.playgroundSizeX 2500m
param *.playgroundSizeY 2500m
param *.playgroundSizeZ 50m
param *.annotations.draw true
param *.obstacles.obstacles "xmldoc(\"config.xml\", \"//AnalogueModel[@type='SimpleObstacleShadowing']/obstacles\")"
param *.manager.updateInterval 1s
param *.manager.host "\"localhost\""
param *.manager.port 9999
param *.manager.autoShutdown true
param *.manager.launchConfig "xmldoc(\"erlangen.launchd.xml\")"
param *.rsu[0].mobility.x 2000
param *.rsu[0].mobility.y 2000
param *.rsu[0].mobility.z 3
param *.rsu[*].applType "\"TraCIDemoRSU11p\""
param *.rsu[*].appl.headerLength "80 bit"
param *.rsu[*].appl.sendBeacons false
param *.rsu[*].appl.dataOnSch false
param *.rsu[*].appl.beaconInterval 1s
param *.rsu[*].appl.beaconUserPriority 7
param *.rsu[*].appl.dataUserPriority 5
param *.rsu[*].nic.phy80211p.antennaOffsetZ "0 m"
param *.connectionManager.sendDirect true
param *.connectionManager.maxInterfDist 2600m
param *.connectionManager.drawMaxIntfDist false
param *.**.nic.mac1609_4.useServiceChannel false
param *.**.nic.mac1609_4.txPower 20mW
param *.**.nic.mac1609_4.bitrate 6Mbps
param *.**.nic.phy80211p.minPowerLevel -110dBm
param *.**.nic.phy80211p.useNoiseFloor true
param *.**.nic.phy80211p.noiseFloor -98dBm
param *.**.nic.phy80211p.decider "xmldoc(\"config.xml\")"
param *.**.nic.phy80211p.analogueModels "xmldoc(\"config.xml\")"
param *.**.nic.phy80211p.usePropagationDelay true
param *.**.nic.phy80211p.antenna "xmldoc(\"antenna.xml\", \"/root/Antenna[@id='monopole']\")"
param *.node[*].nic.phy80211p.antennaOffsetY "0 m"
param *.node[*].nic.phy80211p.antennaOffsetZ "1.895 m"
param *.node[*].applType "\"TraCIDemo11p\""
param *.node[*].appl.headerLength "80 bit"
param *.node[*].appl.sendBeacons false
param *.node[*].appl.dataOnSch false
param *.node[*].appl.beaconInterval 1s
param *.node[*].veinsmobility.x 0
param *.node[*].veinsmobility.y 0
param *.node[*].veinsmobility.z 0
param *.node[*].veinsmobility.setHostSpeed false

vector 0 RSUExampleScenario.node[0].veinsmobility posx ETV
vector 1 RSUExampleScenario.node[0].veinsmobility posy ETV
vector 2 RSUExampleScenario.node[0].veinsmobility speed ETV
vector 3 RSUExampleScenario.node[0].veinsmobility acceleration ETV
vector 4 RSUExampleScenario.node[0].veinsmobility co2emission ETV
vector 5 RSUExampleScenario.node[1].veinsmobility posx ETV
vector 6 RSUExampleScenario.node[1].veinsmobility posy ETV
vector 7 RSUExampleScenario.node[1].veinsmobility speed ETV
vector 8 RSUExampleScenario.node[1].veinsmobility acceleration ETV
vector 9 RSUExampleScenario.node[1].veinsmobility co2emission ETV
vector 10 RSUExampleScenario.node[2].veinsmobility posx ETV
vector 11 RSUExampleScenario.node[2].veinsmobility posy ETV
vector 12 RSUExampleScenario.node[2].veinsmobility speed ETV
vector 13 RSUExampleScenario.node[2].veinsmobility acceleration ETV
vector 14 RSUExampleScenario.node[2].veinsmobility co2emission ETV
vector 15 RSUExampleScenario.node[3].veinsmobility posx ETV
vector 16 RSUExampleScenario.node[3].veinsmobility posy ETV
vector 17 RSUExampleScenario.node[3].veinsmobility speed ETV
vector 18 RSUExampleScenario.node[3].veinsmobility acceleration ETV
vector 19 RSUExampleScenario.node[3].veinsmobility co2emission ETV
vector 20 RSUExampleScenario.node[4].veinsmobility posx ETV
vector 21 RSUExampleScenario.node[4].veinsmobility posy ETV
vector 22 RSUExampleScenario.node[4].veinsmobility speed ETV
vector 23 RSUExampleScenario.node[4].veinsmobility acceleration ETV
vector 24 RSUExampleScenario.node[4].veinsmobility co2emission ETV
vector 25 RSUExampleScenario.node[5].veinsmobility posx ETV
vector 26 RSUExampleScenario.node[5].veinsmobility posy ETV
0	2	1	2414.8476884116
0	3	2	2411.8243290941
0	4	3	2407.1592244543
0	5	4	2402.288200066
0	6	5	2396.1394374635
0	7	6	2388.6993875942
0	8	7	2379.889221533
0	9	8	2370.1207192459
0	10	9	2360.3141803208
0	11	10	2350.5099475634
0	12	11	2341.0010868867
0	13	12	2334.5620136983
0	14	13	2337.6803779466
0	15	14	2348.3497968862
0	16	15	2358.6961674725
0	17	16	2371.6616533546
1	2	1	1578.4613427464
1	3	2	1579.5715045081
1	4	3	1581.5561876604
1	5	4	1586.4898643075
1	6	5	1592.7177137369
1	7	6	1600.2534592729
1	8	7	1609.1769437566
1	9	8	1619.0710908128
1	10	9	1629.0037637418
1	11	10	1638.9341008412
1	12	11	1649.1129276818
1	13	12	1661.0453354148
1	14	13	1673.5713017788
1	15	14	1682.4825292248
1	16	15	1691.8131453674
1	17	16	1695.5671389326
2	3	2	4.1061966058897
2	4	3	6.0195495591482
2	5	4	7.7148368984793
2	6	5	9.5879868385225
2	7	6	11.391389363371
2	8	7	13.513839789145
2	9	8	13.99235115225
2	10	9	13.890224446259
2	11	10	13.976677174468
2	12	11	13.994826577434
2	13	12	13.923680325528
2	14	13	13.923542996629
2	15	14	13.91007151508
2	16	15	13.964598868005
2	17	16	13.995233640105
3	4	3	1.9133529532584
3	5	4	1.6952873393311
3	6	5	1.8731499400432
3	7	6	1.8034025248489
3	8	7	2.1224504257739
3	9	8	0.47851136310433
3	10	9	-0.1021267059911
3	11	10	0.086452728209551
3	12	11	0.018149402965792
3	13	12	-0.071146251906175
3	14	13	-0.0001373288989992
3	15	14	-0.013471481548622
3	16	15	0.054527352924923
3	17	16	0.03063477210002
4	4	3	4.1962556146115
4	5	4	4.6765885426193
4	6	5	5.9822455727343
4	7	6	6.7469998477461
4	8	7	8.9023657158011
4	9	8	3.651678681686
4	10	9	1.6857621818206
4	11	10	2.3276633668785
4	12	11	2.0995306276608
4	13	12	1.7923040941768
4	14	13	2.0305681317735
4	15	14	1.9844951865828
4	16	15	2.2187318873595
4	17	16	2.1416854339172
5	5	4	2414.8767583254
5	6	5	2411.8725636174
5	7	6	2407.2970525089
5	8	7	2402.4626210862
5	9	8	2396.3056860371
5	10	9	2388.8743536096
5	11	10	2380.097228827
5	12	11	2370.3507264333
5	13	12	2360.5878487076
5	14	13	2350.7849318213
5	15	14	2341.2418729237
5	16	15	2334.6305580324
5	17	16	2337.3467480277
6	5	4	1578.4506684253
6	6	5	1579.5537930429
6	7	6	1581.4165868293
6	8	7	1586.3131998433
6	9	8	1592.5493268352
6	10	9	1600.0762428036
6	11	10	1608.9662610246
6	12	11	1618.8381252186
6	13	12	1628.7265753681
6	14	13	1638.6555796713
6	15	14	1648.8046840783
6	16	15	1660.6325348346
6	17	16	1673.301875555
7	6	5	4.0332649588119
7	7	6	5.8265110515686
7	8	7	7.7852127750962
7	9	8	9.5658873894228
7	10	9	11.450149483434
7	11	10	13.391487500134
7	12	11	13.949883621705
7	13	12	13.87602620427
7	14	13	13.885232782268
7	15	14	13.987373048679
7	16	15	13.890608048609
7	17	16	13.887004709987
8	7	6	1.7932460927567
8	8	7	1.9587017235276
8	9	8	1.7806746143266
8	10	9	1.8842620940111
8	11	10	1.9413380167005
8	12	11	0.5583961215709
8	13	12	-0.073857417434921
8	14	13	0.0092065779981212
8	15	14	0.10214026641101
8	16	15	-0.096765000070445
8	17	16	-0.0036033386224883
9	7	6	3.9274001426868
9	8	7	5.2041356246368
9	9	8	5.7574507674447
9	10	9	7.0006276784153
9	11	10	8.2432295261252
9	12	11	3.9110016848773
9	13	12	1.7792042638201
9	14	13	2.0579365757541
9	15	14	2.3818636967155
9	16	15	1.7037407999188
9	17	16	2.0152488537881
10	8	7	2414.8848622198
10	9	8	2412.0691307599
10	10	9	2407.3819784434
10	11	10	2402.4639103656
10	12	11	2396.2016479742
10	13	12	2388.5021761758
10	14	13	2379.5347220144
10	15	14	2369.7521497252
10	16	15	2359.9648396304
10	17	16	2350.1637192596
11	8	7	1578.4476927174
11	9	8	1579.4816146148
11	10	9	1581.3305685576
11	11	10	1586.311893981
11	12	11	1592.6547030602
11	13	12	1600.4532072712
11	14	13	1609.5360029312
11	15	14	1619.4444009606
11	16	15	1629.3575977338
11	17	16	1639.2847824143
12	9	8	3.930963162637
12	10	9	5.9263112237273
12	11	10	7.8381960794392
12	12	11	9.790430662247
12	13	12	11.728100012452
12	14	13	13.629514704516
12	15	14	13.941568216505
12	16	15	13.881279769889
12	17	16	13.897868440901
13	10	9	1.9953480610903
13	11	10	1.9118848557118
13	12	11	1.9522345828079
13	13	12	1.9376693502045
13	14	13	1.9014146920643
13	15	14	0.31205351198868
13	16	15	-0.060288446615449
13	17	16	0.016588671011849
14	10	9	4.2649508166984
14	11	10	5.1441608835298
14	12	11	6.2752675611406
14	13	12	7.3015557220543
14	14	13	8.2469806235914
14	15	14	3.0813423760871
14	16	15	1.825038103975
14	17	16	2.0839753981971
15	11	10	2414.8652957816
15	12	11	2411.9402292009
15	13	12	2407.1594214574
15	14	13	2402.0350675649
15	15	14	2395.5354035812
15	16	15	2387.5598131203
15	17	16	2378.2983909701
16	11	10	1578.4548774119
16	12	11	1579.5289465943
16	13	12	1581.5559881236
16	14	13	1586.7462526578
16	15	14	1593.3295168448
16	16	15	1601.4076912217
16	17	16	1610.7882359559
17	12	11	4.0076977833542
17	13	12	6.1677344774264
17	14	13	8.1549676716625
17	15	14	10.178332106699
17	16	15	12.262859039094
17	17	16	13.909239285488
18	13	12	2.1600366940722
18	14	13	1.9872331942362
18	15	14	2.0233644350362
18	16	15	2.0845269323955
18	17	16	1.6463802463939
19	13	12	4.6399364442395
19	14	13	5.459099048015
19	15	14	6.6616810382017
19	16	15	8.0324172249288
19	17	16	7.5484463594625
20	14	13	2414.9020294819
20	15	14	2411.9226306152
20	16	15	2407.1557433844
20	17	16	2402.1104710221
21	14	13	1578.4413889889
21	15	14	1579.5354087027
21	16	15	1581.5597135043
21	17	16	1586.6698793434
22	15	14	4.1202440707026
22	16	15	6.098204819389
22	17	16	7.9892263333931
23	16	15	1.9779607486865
23	17	16	1.8910215140041
24	16	15	4.3320714987557
24	17	16	5.183486961616
25	17	16	2414.866372544
26	17	16	1578.4544820301
vector 27 RSUExampleScenario.node[5].veinsmobility speed ETV
vector 28 RSUExampleScenario.node[5].veinsmobility acceleration ETV
vector 29 RSUExampleScenario.node[5].veinsmobility co2emission ETV
vector 30 RSUExampleScenario.node[6].veinsmobility posx ETV
vector 31 RSUExampleScenario.node[6].veinsmobility posy ETV
vector 32 RSUExampleScenario.node[6].veinsmobility speed ETV
vector 33 RSUExampleScenario.node[6].veinsmobility acceleration ETV
vector 34 RSUExampleScenario.node[6].veinsmobility co2emission ETV
vector 35 RSUExampleScenario.node[7].veinsmobility posx ETV
vector 36 RSUExampleScenario.node[7].veinsmobility posy ETV
vector 37 RSUExampleScenario.node[7].veinsmobility speed ETV
vector 38 RSUExampleScenario.node[7].veinsmobility acceleration ETV
vector 39 RSUExampleScenario.node[7].veinsmobility co2emission ETV
vector 40 RSUExampleScenario.node[8].veinsmobility posx ETV
vector 41 RSUExampleScenario.node[8].veinsmobility posy ETV
vector 42 RSUExampleScenario.node[8].veinsmobility speed ETV
vector 43 RSUExampleScenario.node[8].veinsmobility acceleration ETV
vector 44 RSUExampleScenario.node[8].veinsmobility co2emission ETV
vector 45 RSUExampleScenario.node[9].veinsmobility posx ETV
vector 46 RSUExampleScenario.node[9].veinsmobility posy ETV
vector 47 RSUExampleScenario.node[9].veinsmobility speed ETV
vector 48 RSUExampleScenario.node[9].veinsmobility acceleration ETV
vector 49 RSUExampleScenario.node[9].veinsmobility co2emission ETV
vector 50 RSUExampleScenario.node[10].veinsmobility posx ETV
vector 51 RSUExampleScenario.node[10].veinsmobility posy ETV
vector 52 RSUExampleScenario.node[10].veinsmobility speed ETV
vector 53 RSUExampleScenario.node[10].veinsmobility acceleration ETV
vector 54 RSUExampleScenario.node[10].veinsmobility co2emission ETV
vector 55 RSUExampleScenario.node[11].veinsmobility posx ETV
vector 56 RSUExampleScenario.node[11].veinsmobility posy ETV
vector 57 RSUExampleScenario.node[11].veinsmobility speed ETV
vector 58 RSUExampleScenario.node[11].veinsmobility acceleration ETV
vector 59 RSUExampleScenario.node[11].veinsmobility co2emission ETV
vector 60 RSUExampleScenario.node[12].veinsmobility posx ETV
vector 61 RSUExampleScenario.node[12].veinsmobility posy ETV
vector 62 RSUExampleScenario.node[12].veinsmobility speed ETV
vector 63 RSUExampleScenario.node[12].veinsmobility acceleration ETV
vector 64 RSUExampleScenario.node[12].veinsmobility co2emission ETV
vector 65 RSUExampleScenario.node[13].veinsmobility posx ETV
vector 66 RSUExampleScenario.node[13].veinsmobility posy ETV
vector 67 RSUExampleScenario.node[13].veinsmobility speed ETV
vector 68 RSUExampleScenario.node[13].veinsmobility acceleration ETV
vector 69 RSUExampleScenario.node[13].veinsmobility co2emission ETV
vector 70 RSUExampleScenario.node[14].veinsmobility posx ETV
vector 71 RSUExampleScenario.node[14].veinsmobility posy ETV
vector 72 RSUExampleScenario.node[14].veinsmobility speed ETV
vector 73 RSUExampleScenario.node[14].veinsmobility acceleration ETV
vector 74 RSUExampleScenario.node[14].veinsmobility co2emission ETV
vector 75 RSUExampleScenario.node[15].veinsmobility posx ETV
vector 76 RSUExampleScenario.node[15].veinsmobility posy ETV
vector 77 RSUExampleScenario.node[15].veinsmobility speed ETV
vector 78 RSUExampleScenario.node[15].veinsmobility acceleration ETV
vector 79 RSUExampleScenario.node[15].veinsmobility co2emission ETV
vector 80 RSUExampleScenario.node[16].veinsmobility posx ETV
vector 81 RSUExampleScenario.node[16].veinsmobility posy ETV
vector 82 RSUExampleScenario.node[16].veinsmobility speed ETV
vector 83 RSUExampleScenario.node[16].veinsmobility acceleration ETV
vector 84 RSUExampleScenario.node[16].veinsmobility co2emission ETV
vector 85 RSUExampleScenario.node[17].veinsmobility posx ETV
vector 86 RSUExampleScenario.node[17].veinsmobility posy ETV
vector 87 RSUExampleScenario.node[17].veinsmobility speed ETV
vector 88 RSUExampleScenario.node[17].veinsmobility acceleration ETV
vector 89 RSUExampleScenario.node[17].veinsmobility co2emission ETV
vector 90 RSUExampleScenario.node[18].veinsmobility posx ETV
vector 91 RSUExampleScenario.node[18].veinsmobility posy ETV
vector 92 RSUExampleScenario.node[18].veinsmobility speed ETV
vector 93 RSUExampleScenario.node[18].veinsmobility acceleration ETV
vector 94 RSUExampleScenario.node[18].veinsmobility co2emission ETV
vector 95 RSUExampleScenario.node[19].veinsmobility posx ETV
vector 96 RSUExampleScenario.node[19].veinsmobility posy ETV
vector 97 RSUExampleScenario.node[19].veinsmobility speed ETV
vector 98 RSUExampleScenario.node[19].veinsmobility acceleration ETV
vector 99 RSUExampleScenario.node[19].veinsmobility co2emission ETV
vector 100 RSUExampleScenario.node[20].veinsmobility posx ETV
vector 101 RSUExampleScenario.node[20].veinsmobility posy ETV
vector 102 RSUExampleScenario.node[20].veinsmobility speed ETV
vector 103 RSUExampleScenario.node[20].veinsmobility acceleration ETV
vector 104 RSUExampleScenario.node[20].veinsmobility co2emission ETV
vector 105 RSUExampleScenario.node[21].veinsmobility posx ETV
vector 106 RSUExampleScenario.node[21].veinsmobility posy ETV
vector 107 RSUExampleScenario.node[21].veinsmobility speed ETV
vector 108 RSUExampleScenario.node[21].veinsmobility acceleration ETV
vector 109 RSUExampleScenario.node[21].veinsmobility co2emission ETV
vector 110 RSUExampleScenario.node[22].veinsmobility posx ETV
vector 111 RSUExampleScenario.node[22].veinsmobility posy ETV
vector 112 RSUExampleScenario.node[22].veinsmobility speed ETV
vector 113 RSUExampleScenario.node[22].veinsmobility acceleration ETV
vector 114 RSUExampleScenario.node[22].veinsmobility co2emission ETV
vector 115 RSUExampleScenario.node[23].veinsmobility posx ETV
vector 116 RSUExampleScenario.node[23].veinsmobility posy ETV
vector 117 RSUExampleScenario.node[23].veinsmobility speed ETV
vector 118 RSUExampleScenario.node[23].veinsmobility acceleration ETV
vector 119 RSUExampleScenario.node[23].veinsmobility co2emission ETV
vector 120 RSUExampleScenario.node[24].veinsmobility posx ETV
vector 121 RSUExampleScenario.node[24].veinsmobility posy ETV
0	18	17	2385.4706804305
0	19	18	2399.3588350668
0	20	19	2412.4541998667
0	21	20	2421.4418196582
0	22	21	2428.417609864
0	23	22	2431.468930052
0	25	23	2433.1513403206
0	112	24	2435.1237040944
0	114	25	2437.2173147583
0	115	26	2438.6437980286
0	116	27	2439.5074353185
0	117	28	2440.517813261
0	118	29	2441.5286354903
0	119	30	2442.5392864447
0	120	31	2443.5505626462
0	121	32	2444.5611125134
0	122	33	2445.5724211388
0	123	34	2446.5834693939
0	124	35	2447.5934051003
0	125	36	2448.6036931522
0	126	37	2449.6148620235
0	128	38	2450.6248001783
0	244	39	2449.5880553933
0	246	40	2448.4757357414
0	247	41	2447.3635385588
0	248	42	2446.250303259
0	249	43	2445.1365203297
0	250	44	2444.0235521834
0	251	45	2442.9111769209
0	252	46	2441.7982721732
0	253	47	2440.6856421625
0	254	48	2439.7151308154
0	255	49	2438.7725309408
0	256	50	2437.9056889905
0	257	51	2432.8785054281
0	258	52	2422.5273191113
0	260	53	2409.439604845
0	338	54	2395.517893619
0	340	55	2381.592286239
0	420	56	2367.6659531716
0	422	57	2353.7601239877
0	502	58	2339.8337569573
0	504	59	2325.9069679289
0	595	60	2311.9542202253
0	597	61	2298.0325140053
0	702	62	2284.0857072632
0	704	63	2270.1754193477
0	809	64	2256.2378749268
0	811	65	2242.3725172955
0	921	66	2228.5568932705
0	923	67	2214.8035730832
0	1039	68	2201.6130456962
0	1128	69	2188.4247624045
0	1241	70	2175.5107078577
0	1426	71	2163.5018647154
0	1544	72	2152.2359160049
0	1546	73	2144.5614629743
1	18	17	1697.3762977775
1	19	18	1698.7149431584
1	20	19	1699.9531973498
1	21	20	1700.8030368192
1	22	21	1701.4822415169
1	23	22	1709.488976148
1	25	23	1720.5600911779
1	112	24	1733.5392477075
1	114	25	1747.3162704222
1	115	26	1761.1584832035
1	116	27	1775.0702432813
1	117	28	1788.9649324082
1	118	29	1802.8657313576
1	119	30	1816.7641749373
1	120	31	1830.6712168986
1	121	32	1844.5682703312
1	122	33	1858.4757581847
1	123	34	1872.3796654344
1	124	35	1886.2682729438
1	125	36	1900.1617258992
1	126	37	1914.0672918586
1	128	38	1927.95593304
1	244	39	1941.8192613758
1	246	40	1955.7024557721
1	247	41	1969.5841215905
1	248	42	1983.4787444612
1	249	43	1997.3802024601
1	250	44	2011.2714909082
1	251	45	2025.1553793969
1	252	46	2039.0458765477
1	253	47	2052.9329446238
1	254	48	2066.8462265795
1	255	49	2080.7728807703
1	256	50	2094.6498483503
1	257	51	2107.3969092406
1	258	52	2116.410831539
1	260	53	2120.9360540062
1	338	54	2120.5048353085
1	340	55	2120.0344859883
1	420	56	2119.5641121576
1	422	57	2119.0944308629
1	502	58	2118.6240558857
1	504	59	2118.1536666537
1	595	60	2117.6824006466
1	597	61	2117.2121830918
1	702	62	2116.7411177447
1	704	63	2116.2712858524
1	809	64	2115.8005333487
1	811	65	2114.7955725584
1	921	66	2112.8364102887
1	923	67	2110.6440530941
1	1039	68	2106.1704403665
1	1128	69	2101.6975887315
1	1241	70	2096.6391956527
1	1426	71	2089.5697793076
1	1544	72	2082.9376931852
1	1546	73	2078.419863862
2	18	17	13.952304350403
2	19	18	13.956911946491
2	20	19	11.503494614513
2	21	20	7.0034946145128
2	22	21	7.8970062485022
2	23	22	10.10483181514
2	25	23	11.990706169653
2	112	24	13.981089308816
2	114	25	13.965594365916
2	115	26	13.989059597438
2	116	27	13.956378436291
2	117	28	13.910982951869
2	118	29	13.88918493646
2	119	30	13.908189346099
2	120	31	13.983992603337
2	121	32	13.971500478752
2	122	33	13.873081948087
2	123	34	13.985133641064
2	124	35	13.886848415199
2	125	36	13.876205747321
2	126	37	13.967912819823
2	128	38	13.871047234884
2	244	39	13.89239756926
2	246	40	13.872267716837
2	247	41	13.999815066161
2	248	42	13.964707984752
2	249	43	13.906584702837
2	250	44	13.922364303169
2	251	45	13.929034490574
2	252	46	13.93922677479
2	253	47	13.924399639922
2	254	48	13.96850544848
2	255	49	13.986686690277
2	256	50	13.935194088209
2	257	51	13.930097484484
2	258	52	13.948393711536
2	260	53	13.882971800906
2	338	54	13.87138918183
2	340	55	13.933780807857
2	420	56	13.942265776542
2	422	57	13.95140511482
2	502	58	13.886548467774
2	504	59	13.920721456567
2	595	60	13.906796863726
2	597	61	13.917803910668
2	702	62	13.924582225601
2	704	63	13.959688465288
2	809	64	13.957318032989
2	811	65	13.940553226951
2	921	66	13.998651232829
2	923	67	13.999179182528
2	1039	68	13.886099785112
2	1128	69	13.881868150404
2	1241	70	13.887636745651
2	1426	71	13.978686858166
2	1544	72	11.380505228889
2	1546	73	6.8805052288885
3	18	17	-0.04292928970186
3	19	18	0.0046075960877356
3	20	19	-2.4534173319781
3	21	20	-4.5
3	22	21	0.8935116339894
3	23	22	2.2078255666373
3	25	23	1.8858743545134
3	112	24	1.9903831391631
3	114	25	-0.01549494290026
3	115	26	0.023465231521987
3	116	27	-0.032681161146611
3	117	28	-0.045395484422334
3	118	29	-0.021798015409148
3	119	30	0.019004409639164
3	120	31	0.075803257238585
3	121	32	-0.012492124584968
3	122	33	-0.098418530665803
3	123	34	0.11205169297755
3	124	35	-0.098285225864965
3	125	36	-0.01064266787842
3	126	37	0.091707072502468
3	128	38	-0.096865584938786
3	244	39	0.021350334375166
3	246	40	-0.020129852422979
3	247	41	0.12754734932445
3	248	42	-0.035107081409079
3	249	43	-0.058123281914741
3	250	44	0.015779600332026
3	251	45	0.0066701874043797
3	252	46	0.010192284216172
3	253	47	-0.014827134867664
3	254	48	0.044105808557942
3	255	49	0.018181241797283
3	256	50	-0.051492602068466
3	257	51	-0.0050966037251055
3	258	52	0.018296227052343
3	260	53	-0.065421910630539
3	338	54	-0.011582619075197
3	340	55	0.062391626026946
3	420	56	0.0084849686850799
3	422	57	0.0091393382777465
3	502	58	-0.064856647045817
3	504	59	0.034172988792415
3	595	60	-0.013924592840485
3	597	61	0.011007046941668
3	702	62	0.0067783149331806
3	704	63	0.035106239686721
3	809	64	-0.0023704322986315
3	811	65	-0.016764806038699
3	921	66	0.058098005878273
3	923	67	0.0005279496987356
3	1039	68	-0.11307939741528
3	1128	69	-0.0042316347081215
3	1241	70	0.0057685952470639
3	1426	71	0.091050112515221
3	1544	72	-2.598181629278
3	1546	73	-4.5
4	18	17	1.8896148890835
4	19	18	2.0499339673421
4	20	19	0.973
4	21	20	0.973
4	22	21	3.236958348016
4	23	22	7.0694109561587
4	25	23	7.2974163894139
4	112	24	8.7433911631671
4	114	25	1.9831721788576
4	115	26	2.116835898497
4	116	27	1.9244585801898
4	117	28	1.8775583559564
4	118	29	1.9545657515643
4	119	30	2.0931646705581
4	120	31	2.2926746988581
4	121	32	1.993865292131
4	122	33	1.6968396252803
4	123	34	2.4149847823944
4	124	35	1.6983583398882
4	125	36	1.9906198998388
4	126	37	2.3442713071536
4	128	38	1.7018725964397
4	244	39	2.0993392475273
4	246	40	1.9585122345881
4	247	41	2.4691677522194
4	248	42	1.9170802753567
4	249	43	1.8345014514108
4	250	44	2.0838538984303
4	251	45	2.0539801513469
4	252	46	2.0668686152862
4	253	47	1.9813596940184
4	254	48	2.1840996762636
4	255	49	2.0987681125428
4	256	50	1.8592856847688
4	257	51	2.0145873760113
4	258	52	2.0950692067684
4	260	53	1.8080099866508
4	338	54	1.9870007069688
4	340	55	2.2415869227426
4	420	56	2.0614496349521
4	422	57	2.0646020593826
4	502	58	1.8102089718445
4	504	59	2.1453880261281
4	595	60	1.9826536733129
4	597	61	2.0673636130683
4	702	62	2.0538817544551
4	704	63	2.1528270365066
4	809	64	2.0265038417738
4	811	65	1.9764402783138
4	921	66	2.2347131127692
4	923	67	2.0405446651404
4	1039	68	1.6487905152147
4	1128	69	2.0126291187762
4	1241	70	2.0466796925005
4	1426	71	2.3433989621326
4	1544	72	0.973
4	1546	73	0.973
5	18	17	2348.0519014368
5	19	18	2358.3998493504
5	20	19	2371.2788021446
5	21	20	2385.0887639745
5	22	21	2398.4985461925
5	23	22	2411.2485283293
5	25	23	2420.6905829484
5	112	24	2427.6440450998
5	114	25	2431.3031180431
5	115	26	2432.9057471878
5	116	27	2434.8184996871
5	117	28	2436.9106889558
5	118	29	2438.5031214217
5	119	30	2439.359314087
5	120	31	2440.3695716034
5	121	32	2441.3815056744
5	122	33	2442.392207776
5	123	34	2443.4019859718
5	124	35	2444.4122552489
5	125	36	2445.4251439738
5	126	37	2446.4367595227
5	128	38	2447.4467230743
5	244	39	2448.4574488286
5	246	40	2449.467800329
5	247	41	2450.4780716181
5	248	42	2449.7461704329
5	249	43	2448.6331060936
5	250	44	2447.5209445587
5	251	45	2446.407523851
5	252	46	2445.2946584851
5	253	47	2444.1824360332
5	254	48	2443.0706190476
5	255	49	2441.9568028547
5	256	50	2440.8451110823
5	257	51	2439.8503503047
5	258	52	2438.9091742415
5	260	53	2438.2310626655
5	338	54	2433.9050446447
5	340	55	2424.21615465
5	420	56	2411.3460908785
5	422	57	2397.4706148925
5	502	58	2383.5587488873
5	504	59	2369.633660475
5	595	60	2355.7048479554
5	597	61	2341.7904321874
5	702	62	2327.8638711022
5	704	63	2313.9188814831
5	809	64	2299.9979078089
5	811	65	2286.0826278217
5	921	66	2272.1551827891
5	923	67	2258.2333055256
5	1039	68	2244.3319301521
5	1128	69	2230.5388995206
5	1241	70	2216.7493601282
5	1426	71	2203.5089906314
5	1544	72	2190.3028214657
5	1546	73	2177.2175397498
6	18	17	1682.2138796467
6	19	18	1691.5459182626
6	20	19	1695.5099147679
6	21	20	1697.3308411958
6	22	21	1698.6335971011
6	23	22	1699.8391930545
6	25	23	1700.7320023719
6	112	24	1701.2941834759
6	114	25	1708.3978488175
6	115	26	1718.9439634858
6	116	27	1731.5308475178
6	117	28	1745.2985167308
6	118	29	1759.1189484736
6	119	30	1773.033284259
6	120	31	1786.9263172904
6	121	32	1800.8424062571
6	122	33	1814.7415532097
6	123	34	1828.6279946407
6	124	35	1842.5211894047
6	125	36	1856.4504067414
6	126	37	1870.362115399
6	128	38	1884.2511058366
6	244	39	1898.150578063
6	246	40	1912.0449035605
6	247	41	1925.9381259941
6	248	42	1939.8457802581
6	249	43	1953.7382693188
6	250	44	1967.6194902081
6	251	45	1981.5164272105
6	252	46	1995.4064328251
6	253	47	2009.2884140396
6	254	48	2023.165334505
6	255	49	2037.0672076773
6	256	50	2050.942565321
6	257	51	2064.8483957723
6	258	52	2078.754013543
6	260	53	2092.6537938379
6	338	54	2105.6893007364
6	340	55	2115.3934075218
6	420	56	2120.5034639826
6	422	57	2120.5707901428
6	502	58	2120.100904949
6	504	59	2119.6305731572
6	595	60	2119.160115581
6	597	61	2118.6901442679
6	702	62	2118.2197627351
6	704	63	2117.748758764
6	809	64	2117.2785659507
6	811	65	2116.8085654471
6	921	66	2116.3381540589
6	923	67	2115.8679307271
6	1039	68	2115.0734324455
6	1128	69	2113.117474094
6	1241	70	2111.1620108271
6	1426	71	2106.8134566117
6	1544	72	2102.3345389208
6	1546	73	2097.6439806372
7	18	17	13.926980708602
7	19	18	13.89086526999
7	20	19	13.965056618985
7	21	20	13.946692067499
7	22	21	13.097137451398
7	23	22	11.939132677032
7	25	23	7.4783001788439
7	112	24	7.8592269216425
7	114	25	9.5749213322898
7	115	26	11.610942506126
7	116	27	13.581243869506
7	117	28	13.973211987913
7	118	29	13.918392209036
7	119	30	13.928662607018
7	120	31	13.985277111761
7	121	32	13.95532245066
7	122	33	13.938708755139
7	123	34	13.908545650935
7	124	35	13.927478809105
7	125	36	13.897819017794
7	126	37	13.989504252097
7	128	38	13.94374062394
7	244	39	13.903882643976
7	246	40	13.969130632835
7	247	41	13.884234787642
7	248	42	13.881978327318
7	249	43	13.927070145076
7	250	44	13.922745489741
7	251	45	13.95273740395
7	252	46	13.968270483359
7	253	47	13.918685564972
7	254	48	13.921468284922
7	255	49	13.897015957548
7	256	50	13.964752228069
7	257	51	13.91147568828
7	258	52	13.974545761354
7	260	53	13.965476403411
7	338	54	13.989670229855
7	340	55	13.951804798429
7	420	56	13.892850009208
7	422	57	13.958218119799
7	502	58	13.933717581006
7	504	59	13.982012811573
7	595	60	13.954506225567
7	597	61	13.954468280503
7	702	62	13.914126337939
7	704	63	13.998578815588
7	809	64	13.932968401979
7	811	65	13.954534002345
7	921	66	13.957377178506
7	923	67	13.932528918332
7	1039	68	13.977439161665
7	1128	69	13.873707558191
7	1241	70	13.945779315263
7	1426	71	13.942668949808
7	1544	72	13.91575948562
7	1546	73	13.907857767178
8	18	17	0.039975998615846
8	19	18	-0.036115438612178
8	20	19	0.074191348995083
8	21	20	-0.018364551486448
8	22	21	-0.84955461610103
8	23	22	-1.1580047743662
8	25	23	-4.4608324981877
8	112	24	0.38092674279862
8	114	25	1.7156944106473
8	115	26	2.0360211738362
8	116	27	1.9703013633797
8	117	28	0.39196811840698
8	118	29	-0.054819778876846
8	119	30	0.010270397982096
8	120	31	0.056614504742901
8	121	32	-0.029954661100637
8	122	33	-0.016613695521373
8	123	34	-0.030163104203529
8	124	35	0.018933158169965
8	125	36	-0.029659791311714
8	126	37	0.091685234303586
8	128	38	-0.045763628156855
8	244	39	-0.039857979963999
8	246	40	0.065247988859191
8	247	41	-0.08489584519295
8	248	42	-0.0022564603248618
8	249	43	0.045091817758511
8	250	44	-0.0043246553349299
8	251	45	0.029991914208512
8	252	46	0.015533079409506
8	253	47	-0.0495849183877
8	254	48	0.0027827199501917
8	255	49	-0.024452327373437
8	256	50	0.067736270520836
8	257	51	-0.053276539789513
8	258	52	0.063070073074195
8	260	53	-0.0090693579427903
8	338	54	0.024193826443517
8	340	55	-0.037865431425162
8	420	56	-0.058954789221753
8	422	57	0.065368110591081
8	502	58	-0.024500538792926
8	504	59	0.048295230567454
8	595	60	-0.027506586005911
8	597	61	-3.7945064249811e-05
8	702	62	-0.040341942564119
8	704	63	0.08445247764932
8	809	64	-0.065610413609539
8	811	65	0.021565600365866
8	921	66	0.0028431761614058
8	923	67	-0.024848260174041
8	1039	68	0.044910243332852
8	1128	69	-0.10373160347343
8	1241	70	0.072071757072118
8	1426	71	-0.0031103654555054
8	1544	72	-0.02690946418792
8	1546	73	-0.0079017184418628
9	18	17	2.1655550639215
9	19	18	1.906797412239
9	20	19	2.2849654495652
9	21	20	1.9716653983805
9	22	21	0.973
9	23	22	0.973
9	25	23	0.973
9	112	24	2.2554772362628
9	114	25	5.6120472675651
9	115	26	7.5119842129131
9	116	27	8.4455276517466
9	117	28	3.3560730035355
9	118	29	1.8466200733259
9	119	30	2.0660268329645
9	120	31	2.2281549844786
9	121	32	1.9335288120447
9	122	33	1.9767670407741
9	123	34	1.9283950769156
9	124	35	2.0949799016024
9	125	36	1.9290667558988
9	126	37	2.3468857079218
9	128	38	1.8793040227889
9	244	39	1.8954681876561
9	246	40	2.2553467174174
9	247	41	1.7429567241042
9	248	42	2.0192482635441
9	249	43	2.1827359052182
9	250	44	2.0164367628106
9	251	45	2.1348602115454
9	252	46	2.0878872407227
9	253	47	1.8642059318509
9	254	48	2.0401536442479
9	255	49	1.9464315106901
9	256	50	2.2632042711189
9	257	51	1.851180617826
9	258	52	2.2486511283506
9	260	53	2.0047870143605
9	338	54	2.1193583924862
9	340	55	1.9065956504161
9	420	56	1.8305118457369
9	422	57	2.2544630998412
9	502	58	1.9497933768092
9	504	59	2.199742909699
9	595	60	1.9416842431598
9	597	61	2.0340583936544
9	702	62	1.8947902862501
9	704	63	2.3236156337703
9	809	64	1.8116807487081
9	811	65	2.1067187558746
9	921	66	2.0440470145686
9	923	67	1.9485115452067
9	1039	68	2.1878187851485
9	1128	69	1.6791237400594
9	1241	70	2.2755265645048
9	1426	71	2.0225291815531
9	1544	72	1.9399893034582
9	1546	73	2.0029455902709
10	18	17	2340.717056727
10	19	18	2334.4889366638
10	20	19	2338.0188398167
10	21	20	2348.6970945761
10	22	21	2359.0578910074
10	23	22	2372.1753142256
10	25	23	2385.9847009928
10	112	24	2399.0560799135
10	114	25	2411.469456295
10	115	26	2420.8240344936
10	116	27	2428.2511095385
10	117	28	2431.5096723901
10	118	29	2433.2168502312
10	119	30	2435.2011956087
10	120	31	2437.29147981
10	121	32	2438.672857787
10	122	33	2439.5458305131
10	123	34	2440.5569901068
10	124	35	2441.5662171456
10	125	36	2442.5764760413
10	126	37	2443.5864360537
10	128	38	2444.5969193554
10	244	39	2445.6077267987
10	246	40	2446.6171177449
10	247	41	2447.6285385494
10	248	42	2448.6389437378
10	249	43	2449.6489775468
10	250	44	2450.659299592
10	251	45	2449.5461587089
10	252	46	2448.4337074455
10	253	47	2447.3207898499
10	254	48	2446.207873206
10	255	49	2445.0940501215
10	256	50	2443.9833638043
10	257	51	2442.8694501355
10	258	52	2441.7571938549
10	260	53	2440.6460889142
10	338	54	2439.6824932018
10	340	55	2438.741084579
10	420	56	2437.8178922307
10	422	57	2432.628875918
10	502	58	2422.099758557
10	504	59	2408.9617932498
10	595	60	2395.0275024913
10	597	61	2381.1194986589
10	702	62	2367.2108877165
10	704	63	2353.2913366285
10	809	64	2339.3363710896
10	811	65	2325.3913249692
10	921	66	2311.4476897647
10	923	67	2297.4983647275
10	1039	68	2283.5801531249
10	1128	69	2269.6389171832
10	1241	70	2255.7127677456
10	1426	71	2241.8359768615
10	1544	72	2228.0496562888
10	1546	73	2214.3204117303
11	18	17	1649.4765304932
11	19	18	1661.4854336744
11	20	19	1673.8446300924
11	21	20	1682.7957309801
11	22	21	1692.1393567109
11	23	22	1695.6439150097
11	25	23	1697.4374776948
11	112	24	1698.6863156371
11	114	25	1699.860083269
11	115	26	1700.7446211064
11	116	27	1701.4003788568
11	117	28	1709.757081449
11	118	29	1720.9911797
11	119	30	1734.0491812732
11	120	31	1747.8043141738
11	121	32	1761.6824669717
11	122	33	1775.5982529195
11	123	34	1789.5036912933
11	124	35	1803.3825532272
11	125	36	1817.2756052278
11	126	37	1831.1645469936
11	128	38	1845.0606850199
11	244	39	1858.9612806309
11	246	40	1872.8423966132
11	247	41	1886.7514271513
11	248	42	1900.646490965
11	249	43	1914.536447579
11	250	44	1928.4487420022
11	251	45	1942.3421864314
11	252	46	1956.2270235084
11	253	47	1970.117681019
11	254	48	1984.0083266487
11	255	49	1997.9102858361
11	256	50	2011.7730940934
11	257	51	2025.6761838896
11	258	52	2039.5585873295
11	260	53	2053.4266205495
11	338	54	2067.3284383547
11	340	55	2081.2374921273
11	420	56	2095.1151711773
11	422	57	2107.8121583294
11	502	58	2116.6019557538
11	504	59	2120.9589145361
11	595	60	2120.4882719275
11	597	61	2120.0185171831
11	702	62	2119.548741932
11	704	63	2119.0785971684
11	809	64	2118.6072562514
11	811	65	2118.1362503711
11	921	66	2117.6652921457
11	923	67	2117.1941417418
11	1039	68	2116.724042221
11	1128	69	2116.2531650327
11	1241	70	2115.7827974036
11	1426	71	2114.7194869779
11	1544	72	2112.7644801643
11	1546	73	2110.4801872596
12	18	17	13.925429278756
12	19	18	13.988464023101
12	20	19	13.968606978769
12	21	20	13.918509052745
12	22	21	13.924308654484
12	23	22	13.951645852409
12	25	23	13.87926841794
12	112	24	12.793519969494
12	114	25	11.84351296104
12	115	26	7.4038563960913
12	116	27	8.4727548549238
12	117	28	10.367830629347
12	118	29	12.18869854925
12	119	30	13.961659159465
12	120	31	13.954832898835
12	121	32	13.985199820679
12	122	33	13.894128147855
12	123	34	13.93747920732
12	124	35	13.922516686122
12	125	36	13.936551663636
12	126	37	13.899921349036
12	128	38	13.905686459227
12	244	39	13.974518650502
12	246	40	13.926188751743
12	247	41	13.91506882193
12	248	42	13.902084701743
12	249	43	13.906688486487
12	250	44	13.974945872892
12	251	45	13.897515056985
12	252	46	13.921723058985
12	253	47	13.971591069859
12	254	48	13.925448836959
12	255	49	13.871581884674
12	256	50	13.876423048137
12	257	51	13.873938687814
12	258	52	13.902598275633
12	260	53	13.87539361449
12	338	54	13.972987024514
12	340	55	13.957628285089
12	420	56	13.950985880545
12	422	57	13.943263569523
12	502	58	13.891897078918
12	504	59	13.874182712052
12	595	60	13.982985400616
12	597	61	13.927164004399
12	702	62	13.899862960158
12	704	63	13.960168966714
12	809	64	13.961850514959
12	811	65	13.962242161995
12	921	66	13.925234322341
12	923	67	13.991972472956
12	1039	68	13.975208927125
12	1128	69	13.946616810667
12	1241	70	13.894927249895
12	1426	71	13.997537077854
12	1544	72	13.937148143742
12	1546	73	13.949254455173
13	18	17	0.027560837855562
13	19	18	0.063034744344186
13	20	19	-0.019857044331729
13	21	20	-0.050097926023881
13	22	21	0.0057996017392714
13	23	22	0.027337197924499
13	25	23	-0.072377434468363
13	112	24	-1.0857484484466
13	114	25	-0.95000700845353
13	115	26	-4.439656564949
13	116	27	1.0688984588324
13	117	28	1.8950757744233
13	118	29	1.8208679199032
13	119	30	1.7729606102145
13	120	31	-0.0068262606300422
13	121	32	0.03036692184396
13	122	33	-0.091071672823745
13	123	34	0.043351059465204
13	124	35	-0.01496252119774
13	125	36	0.014034977513365
13	126	37	-0.036630314600188
13	128	38	0.0057651101914225
13	244	39	0.068832191275433
13	246	40	-0.048329898759256
13	247	41	-0.01111992981285
13	248	42	-0.012984120186884
13	249	43	0.0046037847432316
13	250	44	0.068257386405021
13	251	45	-0.077430815906265
13	252	46	0.02420800199965
13	253	47	0.049868010873906
13	254	48	-0.046142232900019
13	255	49	-0.053866952285171
13	256	50	0.0048411634634249
13	257	51	-0.0024843603232867
13	258	52	0.028659587819128
13	260	53	-0.027204661143477
13	338	54	0.09759341002442
13	340	55	-0.015358739425428
13	420	56	-0.0066424045432356
13	422	57	-0.007722311022226
13	502	58	-0.051366490605288
13	504	59	-0.017714366866276
13	595	60	0.10880268856417
13	597	61	-0.055821396217215
13	702	62	-0.027301044240593
13	704	63	0.06030600655591
13	809	64	0.0016815482452515
13	811	65	0.00039164703572148
13	921	66	-0.037007839654107
13	923	67	0.066738150615711
13	1039	68	-0.0167635458312
13	1128	69	-0.028592116457874
13	1241	70	-0.051689560771921
13	1426	71	0.10260982795851
13	1544	72	-0.060388934111689
13	1546	73	0.01210631143069
14	18	17	2.1237162576214
14	19	18	2.2501690272635
14	20	19	1.9687844028223
14	21	20	1.8624692368163
14	22	21	2.0505690853877
14	23	22	2.1258147014109
14	25	23	1.7844264067381
14	112	24	0.973
14	114	25	0.973
14	115	26	0.973
14	116	27	3.7575341079103
14	117	28	6.4482222684255
14	118	29	7.2140195323343
14	119	30	8.0005078452345
14	120	31	2.0112657729674
14	121	32	2.1396802881933
14	122	33	1.7230808185304
14	123	34	2.1780640158967
14	124	35	1.980720158986
14	125	36	2.0794954629949
14	126	37	1.9059152732614
14	128	38	2.0485298427513
14	244	39	2.2680539427787
14	246	40	1.8690933945628
14	247	41	1.9928741031296
14	248	42	1.9853406570184
14	249	43	2.0447410785649
14	250	44	2.2661688405632
14	251	45	1.7690384486571
14	252	46	2.1120645090544
14	253	47	2.2038504354464
14	254	48	1.8763684319447
14	255	49	1.8456610488087
14	256	50	2.0424227277346
14	257	51	2.0176736696174
14	258	52	2.1249196677245
14	260	53	1.9351566644326
14	338	54	2.3647248781457
14	340	55	1.9828454643184
14	420	56	2.0114971183472
14	422	57	2.007091813677
14	502	58	1.8558336695686
14	504	59	1.9667740746073
14	595	60	2.4037578966905
14	597	61	1.844036691971
14	702	62	1.9371616602798
14	704	63	2.2376623461065
14	809	64	2.0405988072341
14	811	65	2.0362986285583
14	921	66	1.9070037954822
14	923	67	2.2630700095878
14	1039	68	1.9798474403324
14	1128	69	1.9372818212763
14	1241	70	1.8550225742329
14	1426	71	2.3847397299678
14	1544	72	1.8295794064806
14	1546	73	2.0743518631084
15	18	17	2368.4972038758
15	19	18	2358.719633554
15	20	19	2348.9248444787
15	21	20	2339.614370346
15	22	21	2334.1997176057
15	23	22	2339.4193692133
15	25	23	2350.023330241
15	112	24	2360.3662725991
15	114	25	2373.90233667
15	115	26	2387.7152259793
15	116	27	2400.5914429313
15	117	28	2412.9398871803
15	118	29	2421.7139854309
15	119	30	2429.0882121673
15	120	31	2431.6639768599
15	121	32	2433.4302155024
15	122	33	2435.4611475593
15	123	34	2437.5533698815
15	124	35	2438.7684759141
15	125	36	2439.671540139
15	126	37	2440.6813741141
15	128	38	2441.6917844916
15	244	39	2442.7022041357
15	246	40	2443.7124593587
15	247	41	2444.7229332504
15	248	42	2445.7337078364
15	249	43	2446.7459111849
15	250	44	2447.757486716
15	251	45	2448.7683903823
15	252	46	2449.7777371067
15	253	47	2450.5176811377
15	254	48	2449.4057673637
15	255	49	2448.2921364765
15	256	50	2447.1808208324
15	257	51	2446.0691226661
15	258	52	2444.9566500478
15	260	53	2443.8447802094
15	338	54	2442.731477023
15	340	55	2441.6197022425
15	420	56	2440.5080080784
15	422	57	2439.5670555097
15	502	58	2438.6556009268
15	504	59	2437.5062560235
15	595	60	2431.5722499692
15	597	61	2420.527699944
15	702	62	2407.2382113171
15	704	63	2393.3269784888
15	809	64	2379.3955530388
15	811	65	2365.4745847809
15	921	66	2351.529199079
15	923	67	2337.6079130118
15	1039	68	2323.6725767179
15	1128	69	2309.7385225614
15	1241	70	2295.8080973643
15	1426	71	2281.8952010303
15	1544	72	2267.9654732505
15	1546	73	2254.0466482575
16	18	17	1620.7154882178
16	19	18	1630.6188199436
16	20	19	1640.5395918936
16	21	20	1650.8881406859
16	22	21	1663.2272230769
16	23	22	1674.9756418047
16	25	23	1683.991763521
16	112	24	1693.3192880014
16	114	25	1695.9020503219
16	115	26	1697.6139621651
16	116	27	1698.8314944636
16	117	28	1699.9991223291
16	118	29	1700.8287719106
16	119	30	1701.8119543158
16	120	31	1710.77248332
16	121	32	1722.3952316754
16	122	33	1735.7597972872
16	123	34	1749.5276840087
16	124	35	1763.4065813264
16	125	36	1777.3270081691
16	126	37	1791.2142166747
16	128	38	1805.1093518483
16	244	39	1819.0046144547
16	246	40	1832.8976159496
16	247	41	1846.7936245678
16	248	42	1860.6937683271
16	249	43	1874.6135603888
16	250	44	1888.5247187214
16	251	45	1902.4266375881
16	252	46	1916.3071454344
16	253	47	1930.2163243052
16	254	48	1944.0944528161
16	255	49	1957.9940131316
16	256	50	1971.8646762054
16	257	51	1985.7401136523
16	258	52	1999.6252172682
16	260	53	2013.5027974071
16	338	54	2027.3982675895
16	340	55	2041.2746612821
16	420	56	2055.1500487765
16	422	57	2069.0339985425
16	502	58	2082.9232102502
16	504	59	2096.7668430749
16	595	60	2109.1502521159
16	597	61	2117.3046830418
16	702	62	2120.90069908
16	704	63	2120.4308352731
16	809	64	2119.9602894429
16	811	65	2119.4900968131
16	921	66	2119.0190794626
16	923	67	2118.5488760993
16	1039	68	2118.0781981768
16	1128	69	2117.6075635599
16	1241	70	2117.1370515134
16	1426	71	2116.6671315199
16	1544	72	2116.1966430303
16	1546	73	2115.7265227912
17	18	17	13.972104677679
17	19	18	13.964405047395
17	20	19	13.904001857305
17	21	20	13.959390929798
17	22	21	13.878038117993
17	23	22	13.946876353603
17	25	23	13.944667257406
17	112	24	13.919344021892
17	114	25	13.927560248445
17	115	26	13.871213583788
17	116	27	12.691334807668
17	117	28	11.253789109264
17	118	29	6.8021452137647
17	119	30	8.5806848426844
17	120	31	10.511503565412
17	121	32	12.634297992723
17	122	33	13.965718502484
17	123	34	13.984844662666
17	124	35	13.956789441942
17	125	36	13.956542154332
17	126	37	13.917345386401
17	128	38	13.978046209081
17	244	39	13.982312166321
17	246	40	13.915473192113
17	247	41	13.879970237834
17	248	42	13.897895857247
17	249	43	13.999869057706
17	250	44	13.978634591533
17	251	45	13.942230677728
17	252	46	13.955766034983
17	253	47	13.950300372976
17	254	48	13.917481608128
17	255	49	13.942320762996
17	256	50	13.893100212866
17	257	51	13.91633811252
17	258	52	13.928179549885
17	260	53	13.968941585214
17	338	54	13.947614409933
17	340	55	13.993828555658
17	420	56	13.915365449623
17	422	57	13.876728287677
17	502	58	13.918426910553
17	504	59	13.974088552413
17	595	60	13.92781890474
17	597	61	13.871840020602
17	702	62	13.950818891171
17	704	63	13.896373478309
17	809	64	13.98123223257
17	811	65	13.934642261642
17	921	66	13.995758003502
17	923	67	13.879077432866
17	1039	68	13.899420192223
17	1128	69	13.964884717481
17	1241	70	13.997399434138
17	1426	71	13.963054893557
17	1544	72	13.99507131309
17	1546	73	13.959758597296
18	18	17	0.062865392190869
18	19	18	-0.0076996302837493
18	20	19	-0.060403190089856
18	21	20	0.055389072492252
18	22	21	-0.081352811804972
18	23	22	0.068838235610166
18	25	23	-0.0022090961970385
18	112	24	-0.025323235513643
18	114	25	0.0082162265526122
18	115	26	-0.056346664656886
18	116	27	-1.1798787761197
18	117	28	-1.4375456984038
18	118	29	-4.4516438954996
18	119	30	1.7785396289197
18	120	31	1.9308187227277
18	121	32	2.1227944273106
18	122	33	1.3314205097611
18	123	34	0.01912616018206
18	124	35	-0.028055220723617
18	125	36	-0.00024728761054682
18	126	37	-0.039196767930406
18	128	38	0.060700822679792
18	244	39	0.0042659572395483
18	246	40	-0.06683897420764
18	247	41	-0.035502954279073
18	248	42	0.017925619413145
18	249	43	0.10197320045903
18	250	44	-0.021234466172753
18	251	45	-0.036403913805263
18	252	46	0.013535357255023
18	253	47	-0.0054656620067544
18	254	48	-0.032818764848635
18	255	49	0.024839154868388
18	256	50	-0.049220550130123
18	257	51	0.023237899653614
18	258	52	0.011841437364929
18	260	53	0.040762035329827
18	338	54	-0.021327175281478
18	340	55	0.046214145724662
18	420	56	-0.078463106034324
18	422	57	-0.038637161946388
18	502	58	0.041698622875845
18	504	59	0.055661641859915
18	595	60	-0.046269647672306
18	597	61	-0.055978884138167
18	702	62	0.078978870569262
18	704	63	-0.054445412862115
18	809	64	0.084858754260932
18	811	65	-0.046589970928617
18	921	66	0.061115741860121
18	923	67	-0.11668057063594
18	1039	68	0.0203427593573
18	1128	69	0.065464525257703
18	1241	70	0.032514716656879
18	1426	71	-0.034344540580641
18	1544	72	0.032016419533175
18	1546	73	-0.035312715794426
19	18	17	2.247674957111
19	19	18	2.0092894812461
19	20	19	1.8266349661585
19	21	20	2.2210298717235
19	22	21	1.7543037306746
19	23	22	2.264789170887
19	25	23	2.0257606197441
19	112	24	1.9456524984792
19	114	25	2.059016748537
19	115	26	1.8373388380236
19	116	27	0.973
19	117	28	0.973
19	118	29	0.973
19	119	30	5.2602175796137
19	120	31	6.6156566027659
19	121	32	8.3694083781091
19	122	33	6.5165491496521
19	123	34	2.1017560319966
19	124	35	1.9400571066544
19	125	36	2.0335662245147
19	126	37	1.8989280401226
19	128	38	2.2410813776431
19	244	39	2.0514099723484
19	246	40	1.8060532207838
19	247	41	1.9078333116417
19	248	42	2.0884562634303
19	249	43	2.3828885778754
19	250	44	1.9651224554136
19	251	45	1.910615850939
19	252	46	2.0798426520326
19	253	47	2.015384407742
19	254	48	1.9203331804895
19	255	49	2.1164070517746
19	256	50	1.8631262853673
19	257	51	2.108230627045
19	258	52	2.0712498573739
19	260	53	2.1728920736305
19	338	54	1.9617970432444
19	340	55	2.1940726512002
19	420	56	1.7670612526642
19	422	57	1.8970499029483
19	502	58	2.1703787731
19	504	59	2.2236475952785
19	595	60	1.876156120652
19	597	61	1.8386234882413
19	702	62	2.2993516664104
19	704	63	1.8459222947006
19	809	64	2.3228538313892
19	811	65	1.8757004712267
19	921	66	2.2445546956586
19	923	67	1.6362226447506
19	1039	68	2.096714827559
19	1128	69	2.2555743425322
19	1241	70	2.1482652379368
19	1426	71	1.9194912088098
19	1544	72	2.1463276308042
19	1546	73	1.9159241804067
20	18	17	2395.7699587477
20	19	18	2388.0304223568
20	20	19	2379.4738079484
20	21	20	2370.893774931
20	22	21	2362.3077945379
20	23	22	2353.7435980395
20	25	23	2345.1609503828
20	112	24	2337.382531011
20	114	25	2333.9513923901
20	115	26	2339.5342791209
20	116	27	2348.8453277851
20	117	28	2357.9087556405
20	118	29	2368.8976739903
20	119	30	2380.9775286298
20	120	31	2393.1030453129
20	121	32	2405.2335576123
20	122	33	2416.5418459401
20	123	34	2423.9663700609
20	124	35	2430.570008137
20	125	36	2432.1000471369
20	126	37	2433.9002697327
20	128	38	2435.9543662666
20	244	39	2437.9596728822
20	246	40	2438.9494181712
20	247	41	2439.9070256213
20	248	42	2440.9176562928
20	249	43	2441.9269052453
20	250	44	2442.9366141059
20	251	45	2443.9464281293
20	252	46	2444.9573541252
20	253	47	2445.9691156872
20	254	48	2446.979716951
20	255	49	2447.9896090399
20	256	50	2448.9998733379
20	257	51	2450.0085675253
20	258	52	2450.2645866362
20	260	53	2449.1499465979
20	338	54	2448.0369973981
20	340	55	2446.9233345203
20	420	56	2445.8120863364
20	422	57	2444.7009855164
20	502	58	2443.5879624323
20	504	59	2442.4739204658
20	595	60	2441.3600381962
20	597	61	2440.2864050268
20	702	62	2439.3445139695
20	704	63	2438.5901630576
20	809	64	2436.8932832642
20	811	65	2429.488703159
20	921	66	2417.5025738811
20	923	67	2403.9129781366
20	1039	68	2389.9861979192
20	1128	69	2376.0739265668
20	1241	70	2362.1500415469
20	1426	71	2348.2060115275
20	1544	72	2334.2734054149
20	1546	73	2320.3213743683
21	18	17	1593.0919447746
21	19	18	1600.9310288979
21	20	19	1609.5977004888
21	21	20	1618.2880919036
21	22	21	1626.984507191
21	23	22	1635.6588583943
21	25	23	1644.3518980779
21	112	24	1653.7452424029
21	114	25	1665.1186078088
21	115	26	1675.0684384657
21	116	27	1682.929411401
21	117	28	1691.1030376544
21	118	29	1695.1540113101
21	119	30	1696.8415124407
21	120	31	1698.123416462
21	121	32	1699.2704374064
21	122	33	1700.3397115832
21	123	34	1700.9751795586
21	124	35	1703.8619754324
21	125	36	1713.6420474732
21	126	37	1725.4884275207
21	128	38	1739.0054271705
21	244	39	1752.7795728892
21	246	40	1766.6691963989
21	247	41	1780.5653979182
21	248	42	1794.4635625677
21	249	43	1808.342725859
21	250	44	1822.2282137927
21	251	45	1836.1151479203
21	252	46	1850.0173738636
21	253	47	1863.9310904881
21	254	48	1877.8288507257
21	255	49	1891.7168584093
21	256	50	1905.6099847034
21	257	51	1919.4815188777
21	258	52	1933.3752725068
21	260	53	1947.287428339
21	338	54	1961.1784803104
21	340	55	1975.07843991
21	420	56	1988.9482609928
21	422	57	2002.8162427824
21	502	58	2016.7082169261
21	504	59	2030.6129080458
21	595	60	2044.5156059386
21	597	61	2058.405807049
21	702	62	2072.3219886608
21	704	63	2086.2172475774
21	809	64	2100.0155986995
21	811	65	2111.7128415443
21	921	66	2118.6569472738
21	923	67	2120.7883864809
21	1039	68	2120.3179975469
21	1128	69	2119.8480986627
21	1241	70	2119.3778075166
21	1426	71	2118.9068359565
21	1544	72	2118.436250248
21	1546	73	2117.965008446
22	18	17	9.9395148638858
22	19	18	11.888312638128
22	20	19	12.215156767303
22	21	20	12.204687935296
22	22	21	12.224623291104
22	23	22	12.210776680999
22	25	23	12.179672799767
22	112	24	12.160016026092
22	114	25	12.139849843977
22	115	26	12.143721937142
22	116	27	12.197962211408
22	117	28	12.182525644068
22	118	29	12.239106989266
22	119	30	12.235862109773
22	120	31	12.230306803957
22	121	32	12.179537976573
22	122	33	9.6862829881538
22	123	34	6.6424673210172
22	124	35	8.8478549035121
22	125	36	10.859035527671
22	126	37	12.909402498856
22	128	38	13.992245385351
22	244	39	13.943547738914
22	246	40	13.916770352069
22	247	41	13.945535122917
22	248	42	13.906703865982
22	249	43	13.929781103753
22	250	44	13.945612282939
22	251	45	13.915959525181
22	252	46	13.967522231955
22	253	47	13.972525620006
22	254	48	13.883536923684
22	255	49	13.909812615521
22	256	50	13.926507747294
22	257	51	13.897951097498
22	258	52	13.93396450304
22	260	53	13.967009024217
22	338	54	13.893721483571
22	340	55	13.88568516843
22	420	56	13.927406547926
22	422	57	13.918185825639
22	502	58	13.942741125419
22	504	59	13.888825567171
22	595	60	13.956811681101
22	597	61	13.967852384013
22	702	62	13.917130999181
22	704	63	13.962056111419
22	809	64	13.973261172024
22	811	65	13.976665152721
22	921	66	13.929094264333
22	923	67	13.988442988638
22	1039	68	13.963501574658
22	1128	69	13.904512311171
22	1241	70	13.881385968712
22	1426	71	13.955823229789
22	1544	72	13.91319160128
22	1546	73	13.978148939102
23	18	17	1.9502885304927
23	19	18	1.9487977742427
23	20	19	0.32684412917498
23	21	20	-0.010468832007609
23	22	21	0.019935355808121
23	23	22	-0.013846610104666
23	25	23	-0.031103881231974
23	112	24	-0.019656773675234
23	114	25	-0.020166182115208
23	115	26	0.0038720931648282
23	116	27	0.054240274266339
23	117	28	-0.015436567340512
23	118	29	0.056581345198211
23	119	30	-0.0032448794925592
23	120	31	-0.0055553058162339
23	121	32	-0.050768827383871
23	122	33	-2.4932549884193
23	123	34	-3.0438156671366
23	124	35	2.2053875824949
23	125	36	2.0111806241586
23	126	37	2.0503669711854
23	128	38	1.082842886495
23	244	39	-0.048697646437214
23	246	40	-0.026777386844623
23	247	41	0.028764770848211
23	248	42	-0.038831256935373
23	249	43	0.023077237771357
23	250	44	0.015831179185771
23	251	45	-0.02965275775874
23	252	46	0.051562706774567
23	253	47	0.0050033880514082
23	254	48	-0.088988696322776
23	255	49	0.026275691837073
23	256	50	0.016695131773595
23	257	51	-0.028556649796665
23	258	52	0.036013405541889
23	260	53	0.033044521177652
23	338	54	-0.07328754064627
23	340	55	-0.0080363151407798
23	420	56	0.041721379496158
23	422	57	-0.009220722287429
23	502	58	0.024555299780332
23	504	59	-0.053915558247827
23	595	60	0.067986113929656
23	597	61	0.01104070291156
23	702	62	-0.050721384831705
23	704	63	0.044925112237689
23	809	64	0.011205060605425
23	811	65	0.0034039806970405
23	921	66	-0.047570888388437
23	923	67	0.059348724305165
23	1039	68	-0.024941413979978
23	1128	69	-0.058989263486584
23	1241	70	-0.023126342459582
23	1426	71	0.07443726107711
23	1544	72	-0.042631628508678
23	1546	73	0.064957337821832
24	18	17	6.3519610936481
24	19	18	7.4221751260776
24	20	19	2.8298121443499
24	21	20	1.8359013100526
24	22	21	1.9272118037584
24	23	22	1.8264910266966
24	25	23	1.7731570813911
24	112	24	1.8050958468359
24	114	25	1.8019031629654
24	115	26	1.8725806391293
24	116	27	2.0255422754474
24	117	28	1.8193896864997
24	118	29	2.0366725650512
24	119	30	1.8599189826534
24	120	31	1.8526149529095
24	121	32	1.7154241454235
24	122	33	0.973
24	123	34	0.973
24	124	35	6.303427561984
24	125	36	7.0154445701984
24	126	37	8.3105242583869
24	128	38	5.6895407911334
24	244	39	1.8694269918782
24	246	40	1.940528745875
24	247	41	2.1299480592744
24	248	42	1.8991694406835
24	249	43	2.1091372507868
24	250	44	2.0864880630902
24	251	45	1.9308080812489
24	252	46	2.2090898398184
24	253	47	2.0528811368149
24	254	48	1.7292056532406
24	255	49	2.1177127068995
24	256	50	2.0873649665686
24	257	51	1.9327741224938
24	258	52	2.1530281120875
24	260	53	2.1466978352857
24	338	54	1.7825965253946
24	340	55	2.0002810933209
24	420	56	2.1714609797662
24	422	57	1.999553894506
24	502	58	2.1154986829051
24	504	59	1.8470270282863
24	595	60	2.2631030576132
24	597	61	2.0727204260443
24	702	62	1.8602543209442
24	704	63	2.1861282607859
24	809	64	2.0738417857687
24	811	65	2.0479224526271
24	921	66	1.8719038420292
24	923	67	2.237740187174
24	1039	68	1.9511766336835
24	1128	69	1.8314175593046
24	1241	70	1.9493699794006
24	1426	71	2.2846833100323
24	1544	72	1.8870266347629
24	1546	73	2.2554324657204
25	18	17	2411.9174920589
25	19	18	2407.1873548935
25	20	19	2402.1033929951
25	21	20	2395.6770685576
25	22	21	2387.9239549194
25	23	22	2378.7440047435
25	25	23	2368.9560721758
25	112	24	2359.1622850237
25	114	25	2349.3790714815
25	115	26	2340.0066479368
25	116	27	2334.2982135796
25	117	28	2338.9199148722
25	118	29	2349.5394145362
25	119	30	2359.6285321664
25	120	31	2372.2737052037
25	121	32	2385.1868441795
25	122	33	2397.5486702835
25	123	34	2407.0889696613
25	124	35	2415.9658388555
25	125	36	2423.647086352
25	126	37	2430.5697055
25	128	38	2432.1309365664
25	244	39	2433.9420996767
25	246	40	2436.0121670167
25	247	41	2438.0026650226
25	248	42	2438.973087457
25	249	43	2439.9357083738
25	250	44	2440.9457836029
25	251	45	2441.9557050534
25	252	46	2442.966328533
25	253	47	2443.9770825638
25	254	48	2444.9875938372
25	255	49	2445.9973880129
25	256	50	2447.0079984484
25	257	51	2448.0195114657
25	258	52	2449.0300190145
25	260	53	2450.0409876643
25	338	54	2450.2291497608
25	340	55	2449.1158151244
25	420	56	2448.0031307412
25	422	57	2446.8896077783
25	502	58	2445.7771886681
25	504	59	2444.6627922727
25	595	60	2443.5487240007
25	597	61	2442.4356510476
25	702	62	2441.3226709429
25	704	63	2440.2525785718
25	809	64	2439.3108728111
25	811	65	2438.5962522177
25	921	66	2436.7990822749
25	923	67	2429.1662416559
25	1039	68	2417.0518166292
25	1128	69	2403.4340603166
25	1241	70	2389.5047204611
25	1426	71	2375.5916553084
25	1544	72	2361.6469742537
25	1546	73	2347.7140670773
26	18	17	1579.5372955538
26	19	18	1581.5276954006
26	20	19	1586.6770484103
26	21	20	1593.1860297397
26	22	21	1601.0388657451
26	23	22	1610.3368905932
26	25	23	1620.2507178467
26	112	24	1630.1704749865
26	114	25	1640.0795225166
26	115	26	1650.3859643145
26	116	27	1662.6340421
26	117	28	1674.572302388
26	118	29	1683.5553562185
26	119	30	1692.6539752008
26	120	31	1695.658621354
26	121	32	1697.3425149294
26	122	33	1698.5437799906
26	123	34	1699.4458790058
26	124	35	1700.285246267
26	125	36	1700.9566909699
26	126	37	1703.861074903
26	128	38	1713.8453156259
26	244	39	1725.7636898225
26	246	40	1739.3857854959
26	247	41	1753.170717068
26	248	42	1767.0707531869
26	249	43	1780.9598423252
26	250	44	1794.8503685482
26	251	45	1808.7387800114
26	252	46	1822.6368457591
26	253	47	1836.5367068434
26	254	48	1850.4332295349
26	255	49	1864.3198907189
26	256	50	1878.2177770855
26	257	51	1892.128075731
26	258	52	1906.0245472016
26	260	53	1919.9273597188
26	338	54	1933.8175707525
26	340	55	1947.7134334734
26	420	56	1961.6011801884
26	422	57	1975.4993934687
26	502	58	1989.3838292314
26	504	59	2003.2929440839
26	595	60	2017.1979635302
26	597	61	2031.0905601038
26	702	62	2044.9819978084
26	704	63	2058.9055836303
26	809	64	2072.8190275338
26	811	65	2086.7368559008
26	921	66	2100.5148639437
26	923	67	2112.1094423961
26	1039	68	2118.8584406646
26	1128	69	2120.7722106203
26	1241	70	2120.3017352335
26	1426	71	2119.8318095375
26	1544	72	2119.3608159879
26	1546	73	2118.8902201112
27	18	17	4.11254450365
27	19	18	6.0975231633921
27	20	19	8.1241239797909
27	21	20	10.018434339895
27	22	21	11.94044197294
27	23	22	13.966010854098
27	25	23	13.99429374554
27	112	24	13.992908905046
27	114	25	13.889738958394
27	115	26	13.996094578244
27	116	27	13.943261206169
27	117	28	13.961094655516
27	118	29	13.829256838197
27	119	30	13.436515939642
27	120	31	13.16217219069
27	121	32	12.955925744517
27	122	33	11.26758099839
27	123	34	8.5044873526649
27	124	35	9.3420117710427
27	125	36	6.9079266154914
27	126	37	9.1319836530982
27	128	38	10.970689421588
27	244	39	12.982363875891
27	246	40	13.992697958478
27	247	41	13.936582251703
27	248	42	13.977668084782
27	249	43	13.986179260183
27	250	44	13.884867181559
27	251	45	13.927137885792
27	252	46	13.910710662541
27	253	47	13.909766360957
27	254	48	13.940070941378
27	255	49	13.877076953631
27	256	50	13.90827997843
27	257	51	13.954862964205
27	258	52	13.893197995736
27	260	53	13.963183217549
27	338	54	13.948198468271
27	340	55	13.944161438567
27	420	56	13.928642164022
27	422	57	13.919632288448
27	502	58	13.893341971666
27	504	59	13.941880325
27	595	60	13.998108282317
27	597	61	13.878701872779
27	702	62	13.982008344322
27	704	63	13.95228849458
27	809	64	13.945977008874
27	811	65	13.898765254379
27	921	66	13.884750159571
27	923	67	13.956998247474
27	1039	68	13.973321173731
27	1128	69	13.980317651937
27	1241	70	13.967857702158
27	1426	71	13.87017407299
27	1544	72	13.907431576322
27	1546	73	13.990516319459
28	19	18	1.984978659742
28	20	19	2.0266008163989
28	21	20	1.8943103601038
28	22	21	1.9220076330448
28	23	22	2.0255688811579
28	25	23	0.028282891442068
28	112	24	-0.0013848404935555
28	114	25	-0.10316994665191
28	115	26	0.10635561984964
28	116	27	-0.05283337207511
28	117	28	0.017833449346945
28	118	29	-0.13183781731896
28	119	30	-0.39274089855419
28	120	31	-0.27434374895275
28	121	32	-0.20624644617294
28	122	33	-1.6883447461266
28	123	34	-2.7630936457253
28	124	35	0.83752441837784
28	125	36	-2.4340851555514
28	126	37	2.2240570376068
28	128	38	1.8387057684897
28	244	39	2.011674454303
28	246	40	1.0103340825873
28	247	41	-0.056115706774872
28	248	42	0.041085833078251
28	249	43	0.0085111754015088
28	250	44	-0.10131207862403
28	251	45	0.042270704233088
28	252	46	-0.016427223251666
28	253	47	-0.00094430158380554
28	254	48	0.030304580421653
28	255	49	-0.062993987747468
28	256	50	0.031203024799471
28	257	51	0.046582985774148
28	258	52	-0.061664968468248
28	260	53	0.069985221812967
28	338	54	-0.01498474927852
28	340	55	-0.0040370297036123
28	420	56	-0.015519274545367
28	422	57	-0.0090098755736836
28	502	58	-0.026290316781962
28	504	59	0.048538353333717
28	595	60	0.056227957317605
28	597	61	-0.11940640953835
28	702	62	0.10330647154246
28	704	63	-0.029719849741086
28	809	64	-0.0063114857068296
28	811	65	-0.047211754494347
28	921	66	-0.014015094807837
28	923	67	0.072248087902555
28	1039	68	0.016322926257271
28	1128	69	0.0069964782055472
28	1241	70	-0.01245994977886
28	1426	71	-0.097683629167731
28	1544	72	0.03725750333164
28	1546	73	0.083084743137006
29	19	18	4.3420194955082
29	20	19	5.5193514834883
29	21	20	6.2598837528783
29	22	21	7.3741311479677
29	23	22	8.8530434321966
29	25	23	2.13365012742
29	112	24	2.0334505025289
29	114	25	1.6822325806597
29	115	26	2.3971909293526
29	116	27	1.855503707612
29	117	28	2.0948662776171
29	118	29	1.5820533004124
29	119	30	0.973
29	120	31	0.973
29	121	32	1.2919135943652
29	122	33	0.973
29	123	34	0.973
29	124	35	3.5215990826384
29	125	36	0.973
29	126	37	6.5156001891765
29	128	38	6.6226227280211
29	244	39	8.2324265791826
29	246	40	5.4451881818867
29	247	41	1.8438824401449
29	248	42	2.1749617238466
29	249	43	2.0661193061513
29	250	44	1.6880752085194
29	251	45	2.1732746516206
29	252	46	1.9746491499881
29	253	47	2.0264593789898
29	254	48	2.1345252785117
29	255	49	1.8156237109116
29	256	50	2.1340627994298
29	257	51	2.1908906066732
29	258	52	1.8214679161102
29	260	53	2.2705861872936
29	338	54	1.9831738713403
29	340	55	2.0195663816392
29	420	56	1.9794538530861
29	422	57	2.0004054330977
29	502	58	1.93992520771
29	504	59	2.1959885866008
29	595	60	2.2283411417848
29	597	61	1.6270777435242
29	702	62	2.3851117990842
29	704	63	1.9340301948742
29	809	64	2.0121056433488
29	811	65	1.8703641945081
29	921	66	1.9801814994952
29	923	67	2.277460917713
29	1039	68	2.0910828619716
29	1128	69	2.0604034814904
29	1241	70	1.9936118250746
29	1426	71	1.6990698160563
29	1544	72	2.1542627543164
29	1546	73	2.3180133884777
30	20	19	2414.8588002162
30	21	20	2411.8128147094
30	22	21	2407.1980394585
30	23	22	2402.4260893827
30	25	23	2396.4703598532
30	112	24	2389.2222769874
30	114	25	2380.6475507468
30	115	26	2371.4675885644
30	116	27	2362.2853867376
30	117	28	2353.1014532228
30	118	29	2343.9167522368
30	119	30	2335.7592630242
30	120	31	2334.0763715116
30	121	32	2342.9457734847
30	122	33	2352.7630564623
30	123	34	2362.8963906621
30	124	35	2375.8179889829
30	125	36	2388.7877361589
30	126	37	2401.7727345998
30	128	38	2414.1003036475
30	244	39	2422.4116629731
30	246	40	2429.7483392076
30	247	41	2431.8187159494
30	248	42	2433.5863239734
30	249	43	2435.6333255254
30	250	44	2437.7251014278
30	251	45	2438.8311097387
30	252	46	2439.7530554269
30	253	47	2440.7623816305
30	254	48	2441.7733011593
30	255	49	2442.7835379966
30	256	50	2443.7947770543
30	257	51	2444.8051972518
30	258	52	2445.8169310748
30	260	53	2446.8271123795
30	338	54	2447.8372403309
30	340	55	2448.8468136862
30	420	56	2449.85968903
30	422	57	2450.4280289282
30	502	58	2449.3144754737
30	504	59	2448.1991392631
30	595	60	2447.0859020924
30	597	61	2445.9733171484
30	702	62	2444.8601511701
30	704	63	2443.7485429292
30	809	64	2442.6356549449
30	811	65	2441.5218806025
30	921	66	2440.4231678097
30	923	67	2439.4804845047
30	1039	68	2438.6159434677
30	1128	69	2437.2669850449
30	1241	70	2430.7552516428
30	1426	71	2419.3404297139
30	1544	72	2405.9348433106
30	1546	73	2392.0194124001
31	20	19	1578.4572625495
31	21	20	1579.5757325301
31	22	21	1581.5168734081
31	23	22	1586.3502014261
31	25	23	1592.3825349454
31	112	24	1599.723844354
31	114	25	1608.4088607347
31	115	26	1617.7068977449
31	116	27	1627.0072032055
31	117	28	1636.3092626277
31	118	29	1645.6120993933
31	119	30	1655.8232780742
31	120	31	1668.6061278731
31	121	32	1677.8234253228
31	122	33	1686.4625172503
31	123	34	1694.2570089856
31	124	35	1696.1883798428
31	125	36	1697.7153751645
31	126	37	1698.9431934794
31	128	38	1700.1088474551
31	244	39	1700.8851519767
31	246	40	1702.3337102309
31	247	41	1711.7907452099
31	248	42	1723.4225047911
31	249	43	1736.8928158525
31	250	44	1750.6577649042
31	251	45	1764.5359474756
31	252	46	1778.4480041219
31	253	47	1792.3282297663
31	254	48	1806.2303667758
31	255	49	1820.1231154287
31	256	50	1834.0296465904
31	257	51	1847.9249168085
31	258	52	1861.8382519679
31	260	53	1875.7302369392
31	338	54	1889.6214881958
31	340	55	1903.5051126648
31	420	56	1917.4341459852
31	422	57	1931.3353003571
31	502	58	1945.2338942112
31	504	59	1959.1547391778
31	595	60	1973.0493854005
31	597	61	1986.9358909866
31	702	62	2000.8296486354
31	704	63	2014.703963697
31	809	64	2028.5942516169
31	811	65	2042.495602442
31	921	66	2056.3851745035
31	923	67	2070.3130613565
31	1039	68	2084.1962146899
31	1128	69	2098.0349792624
31	1241	70	2110.155092163
31	1426	71	2117.83540574
31	1544	72	2120.8566767089
31	1546	73	2120.3866711082
32	21	20	4.067372106413
32	22	21	5.8844240154271
32	23	22	7.537838140674
32	25	23	9.3614518548586
32	112	24	11.131813735405
32	114	25	13.055222753974
32	115	26	13.056929057404
32	116	27	13.088935566079
32	117	28	13.097759776963
32	118	29	13.007092833967
32	119	30	13.085117228884
32	120	31	13.080600649864
32	121	32	13.117051406159
32	122	33	13.130705420296
32	123	34	13.076950958216
32	124	35	13.090002827352
32	125	36	13.033971088322
32	126	37	13.019674586834
32	128	38	10.823429693182
32	244	39	6.3234296931819
32	246	40	8.6041157709741
32	247	41	10.729878066311
32	248	42	12.674055236164
32	249	43	13.986021694564
32	250	44	13.889535133126
32	251	45	13.959654321973
32	252	46	13.972242008243
32	253	47	13.884239303807
32	254	48	13.920426942427
32	255	49	13.887057281358
32	256	50	13.924890077722
32	257	51	13.888422596853
32	258	52	13.973124842362
32	260	53	13.979389482583
32	338	54	13.907495470522
32	340	55	13.981073234761
32	420	56	13.968595914519
32	422	57	13.977168370693
32	502	58	13.911225638806
32	504	59	13.97115611963
32	595	60	13.928424248584
32	597	61	13.93642065672
32	702	62	13.982039187397
32	704	63	13.971991834943
32	809	64	13.958216204653
32	811	65	13.965484043353
32	921	66	13.949256250246
32	923	67	13.91837227551
32	1039	68	13.892609307456
32	1128	69	13.98260364667
32	1241	70	13.9460709692
32	1426	71	13.96612499878
32	1544	72	13.92864668397
32	1546	73	13.95173190474
33	22	21	1.8170519090141
33	23	22	1.6534141252469
33	25	23	1.8236137141846
33	112	24	1.770361880546
33	114	25	1.9234090185692
33	115	26	0.0017063034302556
33	116	27	0.032006508675405
33	117	28	0.0088242108840486
33	118	29	-0.090666942996904
33	119	30	0.078024394917302
33	120	31	-0.0045165790198354
33	121	32	0.036450756294652
33	122	33	0.013654014137574
33	123	34	-0.053754462080542
33	124	35	0.013051869135817
33	125	36	-0.056031739029569
33	126	37	-0.014296501488424
33	128	38	-2.1962448936517
33	244	39	-4.5
33	246	40	2.2806860777922
33	247	41	2.1257622953365
33	248	42	1.9441771698534
33	249	43	1.3119664584004
33	250	44	-0.09648656143807
33	251	45	0.07011918884702
33	252	46	0.012587686269544
33	253	47	-0.088002704435493
33	254	48	0.036187638619449
33	255	49	-0.03336966106901
33	256	50	0.037832796364091
33	257	51	-0.036467480869032
33	258	52	0.084702245509252
33	260	53	0.0062646402209054
33	338	54	-0.071894012060946
33	340	55	0.073577764239161
33	420	56	-0.012477320241741
33	422	57	0.0085724561731322
33	502	58	-0.065942731886171
33	504	59	0.059930480823388
33	595	60	-0.042731871046126
33	597	61	0.0079964081360959
33	702	62	0.045618530677165
33	704	63	-0.010047352453695
33	809	64	-0.013775630290619
33	811	65	0.0072678387002085
33	921	66	-0.016227793106809
33	923	67	-0.030883974735625
33	1039	68	-0.025762968054043
33	1128	69	0.089994339214172
33	1241	70	-0.036532677470239
33	1426	71	0.020054029580205
33	1544	72	-0.037478314810432
33	1546	73	0.023085220770444
34	22	21	3.9895326670072
34	23	22	4.516813990543
34	25	23	5.7516577127992
34	112	24	6.5238969694044
34	114	25	7.9969762628647
34	115	26	1.9508699439778
34	116	27	2.049523008974
34	117	28	1.9772596869179
34	118	29	1.656536423546
34	119	30	2.1942461350964
34	120	31	1.933524872338
34	121	32	2.0664831725728
34	122	33	1.9957732435436
34	123	34	1.7780043555849
34	124	35	1.9898373780777
34	125	36	1.767304226999
34	126	37	1.8970896503876
34	128	38	0.973
34	244	39	0.973
34	246	40	6.3131172663211
34	247	41	7.2387381048755
34	248	42	7.8478531352875
34	249	43	6.4595699218881
34	250	44	1.704588734769
34	251	45	2.2706165053704
34	252	46	2.0783904543616
34	253	47	1.7325612239294
34	254	48	2.152114369954
34	255	49	1.9156327972978
34	256	50	2.1581293389031
34	257	51	1.9053919146671
34	258	52	2.321330931143
34	260	53	2.0578412833151
34	338	54	1.7884260015813
34	340	55	2.284823692563
34	420	56	1.993626660217
34	422	57	2.0653843819253
34	502	58	1.8086936113147
34	504	59	2.2376815222912
34	595	60	1.8880865495793
34	597	61	2.0592000420201
34	702	62	2.1907263189022
34	704	63	2.0021462571644
34	809	64	1.9882288612758
34	811	65	2.0597735821873
34	921	66	1.9790992877003
34	923	67	1.9269068362018
34	1039	68	1.9416209410549
34	1128	69	2.3403282689627
34	1241	70	1.9105415782959
34	1426	71	2.1028764937507
34	1544	72	1.9057421063225
34	1546	73	2.1115273522428
35	23	22	2414.8618358603
35	25	23	2411.8580234927
35	112	24	2407.0972548373
35	114	25	2401.9344958061
35	115	26	2395.4312230857
35	116	27	2388.0166858443
35	117	28	2380.605373892
35	118	29	2373.202286104
35	119	30	2365.7949478778
35	120	31	2358.3664403009
35	121	32	2350.9513089663
35	122	33	2343.5424025471
35	123	34	2336.9830596809
35	124	35	2334.0494864163
35	125	36	2337.4780572354
35	126	37	2345.6647225083
35	128	38	2353.49462478
35	244	39	2361.4060118824
35	246	40	2371.8368479757
35	247	41	2382.2867935618
35	248	42	2392.799581342
35	249	43	2403.2963759961
35	250	44	2413.8083810874
35	251	45	2422.2358128987
35	252	46	2429.714270673
35	253	47	2431.8026632929
35	254	48	2433.5620221659
35	255	49	2435.466607752
35	256	50	2437.3689128296
35	257	51	2438.6282839838
35	258	52	2439.4000144538
35	260	53	2440.3203180684
35	338	54	2441.2391912382
35	340	55	2442.1587569923
35	420	56	2443.0791810955
35	422	57	2443.9995532772
35	502	58	2444.9190472406
35	504	59	2445.8381393547
35	595	60	2446.7576322547
35	597	61	2447.6773743792
35	702	62	2448.5971823439
35	704	63	2449.5175153755
35	809	64	2450.4365012295
35	811	65	2449.8932432871
35	921	66	2448.8816068704
35	923	67	2447.8697884678
35	1039	68	2446.8570419201
35	1128	69	2445.8451586224
35	1241	70	2444.8327473403
35	1426	71	2443.8201612772
35	1544	72	2442.805366718
35	1546	73	2441.7909601909
36	23	22	1578.4561478766
36	25	23	1579.559132101
36	112	24	1581.6189543447
36	114	25	1586.8481179941
36	115	26	1593.4350373344
36	116	27	1600.9449420925
36	117	28	1608.4515800783
36	118	29	1615.9498881185
36	119	30	1623.4525012663
36	120	31	1630.9765560506
36	121	32	1638.4870625446
36	122	33	1645.9912640564
36	123	34	1654.25662788
36	124	35	1664.1319735982
36	125	36	1673.4079156369
36	126	37	1680.0610618973
36	128	38	1687.1222638832
36	244	39	1694.0342444284
36	246	40	1695.5933249947
36	247	41	1696.9973441865
36	248	42	1698.0947219171
36	249	43	1699.0872639483
36	250	44	1700.0812442275
36	251	45	1700.8749691211
36	252	46	1702.2958563035
36	253	47	1711.6851105671
36	254	48	1723.2625865405
36	255	49	1735.7957281312
36	256	50	1748.3138628155
36	257	51	1760.9212893676
36	258	52	1773.5929945614
36	260	53	1786.2489840593
36	338	54	1798.885302119
36	340	55	1811.5311445808
36	420	56	1824.1887910338
36	422	57	1836.8457234632
36	502	58	1849.4905786617
36	504	59	1862.1299076378
36	595	60	1874.7747482117
36	597	61	1887.4230161132
36	702	62	1900.0721894475
36	704	63	1912.7285834868
36	809	64	1925.3664511768
36	811	65	1938.0101199569
36	921	66	1950.6366567686
36	923	67	1963.2654650006
36	1039	68	1975.9058576887
36	1128	69	1988.5354758957
36	1241	70	2001.1716840323
36	1426	71	2013.8100736653
36	1544	72	2026.4760281984
36	1546	73	2039.1371395849
37	25	23	4.0608742667126
37	112	24	6.2191981008855
37	114	25	8.1895616532882
37	115	26	10.213926542587
37	116	27	10.523003529425
37	117	28	10.602859260213
37	118	29	10.510912516553
37	119	30	10.494186494547
37	120	31	10.565519105854
37	121	32	10.58602443555
37	122	33	10.494087178512
37	123	34	10.577600009249
37	124	35	10.519033046608
37	125	36	10.612200059314
37	126	37	10.544839065542
37	128	38	10.508161969018
37	244	39	10.556259912898
37	246	40	10.601337815587
37	247	41	10.559272445299
37	248	42	10.586483303449
37	249	43	10.501477940398
37	250	44	10.539310473582
37	251	45	6.4446944556538
37	252	46	8.7002403630864
37	253	47	10.689839934287
37	254	48	12.630848485116
37	255	49	12.615105167319
37	256	50	12.618962466886
37	257	51	12.652118238249
37	258	52	12.72975650804
37	260	53	12.64519745791
37	338	54	12.616691098792
37	340	55	12.640088570317
37	420	56	12.636286280268
37	422	57	12.723589814712
37	502	58	12.697615581731
37	504	59	12.665849226079
37	595	60	12.642996864928
37	597	61	12.704235324635
37	702	62	12.644971724585
37	704	63	12.700921515561
37	809	64	12.685687469725
37	811	65	12.646131060579
37	921	66	12.684138629578
37	923	67	12.692734957201
37	1039	68	12.672671702182
37	1128	69	12.669831698196
37	1241	70	12.680693090606
37	1426	71	12.730371075567
37	1544	72	12.716350049869
37	1546	73	12.701947715195
38	112	24	2.1583238341729
38	114	25	1.9703635524027
38	115	26	2.024364889299
38	116	27	0.30907698683803
38	117	28	0.079855730787386
38	118	29	-0.091946743659211
38	119	30	-0.016726022006477
38	120	31	0.07133261130657
38	121	32	0.020505329696462
38	122	33	-0.091937257037499
38	123	34	0.083512830736581
38	124	35	-0.058566962641198
38	125	36	0.093167012706399
38	126	37	-0.067360993772745
38	128	38	-0.036677096523345
38	244	39	0.04809794388013
38	246	40	0.045077902688645
38	247	41	-0.042065370287746
38	248	42	0.027210858149919
38	249	43	-0.085005363051312
38	250	44	0.037832533183973
38	251	45	-4.094616017928
38	252	46	2.2555459074327
38	253	47	1.9895995712001
38	254	48	1.9410085508299
38	255	49	-0.015743317797314
38	256	50	0.0038572995667341
38	257	51	0.033155771363527
38	258	52	0.077638269790913
38	260	53	-0.084559050130192
38	338	54	-0.028506359118037
38	340	55	0.023397471525241
38	420	56	-0.0038022900489167
38	422	57	0.087303534443491
38	502	58	-0.025974232980516
38	504	59	-0.031766355652362
38	595	60	-0.022852361151017
38	597	61	0.061238459707239
38	702	62	-0.059263600050473
38	704	63	0.05594979097601
38	809	64	-0.015234045835676
38	811	65	-0.039556409146172
38	921	66	0.038007568998728
38	923	67	0.0085963276238186
38	1039	68	-0.020063255019485
38	1128	69	-0.0028400039859129
38	1241	70	0.010861392410007
38	1426	71	0.049677984961308
38	1544	72	-0.014021025698167
38	1546	73	-0.014402334673795
39	112	24	4.6671892251845
39	114	25	5.4446806686694
39	115	26	6.6842432597297
39	116	27	2.5091069810759
39	117	28	1.9356501905785
39	118	29	1.4914072447789
39	119	30	1.6807003634974
39	120	31	1.9102686739091
39	121	32	1.7825737813274
39	122	33	1.4904780866968
39	123	34	1.9424831485193
39	124	35	1.5764885080758
39	125	36	1.9706159725933
39	126	37	1.5558141111588
39	128	38	1.63121987375
39	244	39	1.8502662787917
39	246	40	1.8466454678963
39	247	41	1.6210933661485
39	248	42	1.7997205359949
39	249	43	1.5084402118965
39	250	44	1.8226556891415
39	251	45	0.973
39	252	46	6.3198701690991
39	253	47	6.8642326410246
39	254	48	7.8139621935621
39	255	49	1.8561470952188
39	256	50	1.9160975183039
39	257	51	2.0085305540771
39	258	52	2.152828218421
39	260	53	1.649099490604
39	338	54	1.8174799463478
39	340	55	1.97759462343
39	420	56	1.894388793348
39	422	57	2.1817759708081
39	502	58	1.8321693321065
39	504	59	1.8117396402197
39	595	60	1.8369586297842
39	597	61	2.0997640794233
39	702	62	1.7261695188173
39	704	63	2.083218926278
39	809	64	1.8639715535512
39	811	65	1.7863222174102
39	921	66	2.0265865457807
39	923	67	1.9374960334543
39	1039	68	1.8480626136721
39	1128	69	1.9004029534262
39	1241	70	1.9432751927529
39	1426	71	2.0671142681128
39	1544	72	1.8704264306793
39	1546	73	1.8679683739416
40	114	25	2414.8775742606
40	115	26	2411.9038439742
40	116	27	2407.2283499469
40	117	28	2402.3680244937
40	118	29	2396.1771332737
40	119	30	2388.586097418
40	120	31	2379.6363416617
40	121	32	2369.9128532254
40	122	33	2360.561115353
40	123	34	2351.6667062229
40	124	35	2343.1268905039
40	125	36	2335.8776681137
40	126	37	2333.8304737648
40	128	38	2340.0987089881
40	244	39	2348.5355565373
40	246	40	2356.6540667722
40	247	41	2365.8866927988
40	248	42	2376.5349063952
40	249	43	2387.1467708275
40	250	44	2397.7892078888
40	251	45	2407.2230499006
40	252	46	2415.4908685238
40	253	47	2423.1920644363
40	254	48	2430.2968966688
40	255	49	2431.9423992048
40	256	50	2433.6802751749
40	257	51	2435.7101382205
40	258	52	2437.7829187678
40	260	53	2438.848284001
40	338	54	2439.7422675698
40	340	55	2440.7075966817
40	420	56	2441.6627886776
40	422	57	2442.609752079
40	502	58	2443.5498652956
40	504	59	2444.4853087072
40	595	60	2445.416909219
40	597	61	2446.3440388695
40	702	62	2447.2724983154
40	704	63	2448.1974758046
40	809	64	2449.1220126227
40	811	65	2450.0453900459
40	921	66	2450.3239084678
40	923	67	2449.3091887704
40	1039	68	2448.2932060114
40	1128	69	2447.2786556289
40	1241	70	2446.2651167461
40	1426	71	2445.2531620302
40	1544	72	2444.238839335
40	1546	73	2443.225096531
41	114	25	1578.4503688179
41	115	26	1579.5423070593
41	116	27	1581.4861730598
41	117	28	1586.4090131586
41	118	29	1592.6795330746
41	119	30	1600.3682066137
41	120	31	1609.4330762289
41	121	32	1619.2816304546
41	122	33	1628.7536525736
41	123	34	1637.7624636805
41	124	35	1646.4121205127
41	125	36	1655.6717011314
41	126	37	1666.8316216664
41	128	38	1675.5242495267
41	244	39	1682.6500519309
41	246	40	1689.9715278065
41	247	41	1694.7039647149
41	248	42	1696.2955363542
41	249	43	1697.5602109339
41	250	44	1698.5665244274
41	251	45	1699.4585571876
41	252	46	1700.2403346505
41	253	47	1700.9303422617
41	254	48	1703.0493022837
41	255	49	1712.6046439204
41	256	50	1724.0407514693
41	257	51	1737.3982824422
41	258	52	1751.1714570243
41	260	53	1764.845620892
41	338	54	1778.2996498132
41	340	55	1791.5748286871
41	420	56	1804.7106022276
41	422	57	1817.7332163639
41	502	58	1830.6616269536
41	504	59	1843.5258185146
41	595	60	1856.3371626241
41	597	61	1869.0870235767
41	702	62	1881.8551718378
41	704	63	1894.5754363285
41	809	64	1907.2896407209
41	811	65	1919.9879011484
41	921	66	1932.634858977
41	923	67	1945.2998791384
41	1039	68	1957.9806639468
41	1128	69	1970.6435708376
41	1241	70	1983.2938528974
41	1426	71	1995.9243624955
41	1544	72	2008.5844275523
41	1546	73	2021.2372548133
42	115	26	4.0643546214392
42	116	27	5.9588658364927
42	117	28	7.7175364692877
42	118	29	9.7123688541045
42	119	30	11.687908970648
42	120	31	13.499999598886
42	121	32	13.680904150388
42	122	33	13.015242584691
42	123	34	12.422472920647
42	124	35	11.953906536645
42	125	36	11.685698955794
42	126	37	11.349198009896
42	128	38	11.088275343522
42	244	39	10.934149404543
42	246	40	10.894452857779
42	247	41	10.831106482323
42	248	42	10.722757750542
42	249	43	10.6443277804
42	250	44	10.686163941797
42	251	45	8.1505149477182
42	252	46	8.8352692850802
42	253	47	6.4875304811939
42	254	48	8.7267954901305
42	255	49	10.481866005664
42	256	50	12.553051492218
42	257	51	13.915266969802
42	258	52	13.80417714024
42	260	53	13.587560696989
42	338	54	13.33807917186
42	340	55	13.210653548288
42	420	56	13.157308460518
42	422	57	13.06329907964
42	502	58	12.93388484166
42	504	59	12.814986532662
42	595	60	12.787245193642
42	597	61	12.688890134391
42	702	62	12.798299219242
42	704	63	12.792570063459
42	809	64	12.779780660612
42	811	65	12.673199301541
42	921	66	12.65272762078
42	923	67	12.608535214036
42	1039	68	12.653335841648
42	1128	69	12.726803806137
42	1241	70	12.63825234811
42	1426	71	12.607890952705
42	1544	72	12.740485918291
42	1546	73	12.673214992558
43	116	27	1.8945112150535
43	117	28	1.758670632795
43	118	29	1.9948323848168
43	119	30	1.9755401165434
43	120	31	1.8120906282379
43	121	32	0.18090455150215
43	122	33	-0.66566156569741
43	123	34	-0.59276966404314
43	124	35	-0.46856638400233
43	125	36	-0.26820758085105
43	126	37	-0.33650094589849
43	128	38	-0.26092266637408
43	244	39	-0.15412593897891
43	246	40	-0.039696546763524
43	247	41	-0.063346375456419
43	248	42	-0.10834873178045
43	249	43	-0.078429970142716
43	250	44	0.041836161397132
43	251	45	-2.5356489940785
43	252	46	0.68475433736208
43	253	47	-2.3477388038864
43	254	48	2.2392650089366
43	255	49	1.7550705155334
43	256	50	2.0711854865542
43	257	51	1.3622154775842
43	258	52	-0.11108982956206
43	260	53	-0.21661644325112
43	338	54	-0.24948152512909
43	340	55	-0.12742562357192
43	420	56	-0.053345087770118
43	422	57	-0.094009380878207
43	502	58	-0.12941423797977
43	504	59	-0.11889830899761
43	595	60	-0.027741339020263
43	597	61	-0.09835505925151
43	702	62	0.10940908485124
43	704	63	-0.0057291557828805
43	809	64	-0.012789402847503
43	811	65	-0.10658135907045
43	921	66	-0.02047168076059
43	923	67	-0.044192406744282
43	1039	68	0.044800627611673
43	1128	69	0.07346796448927
43	1241	70	-0.088551458027608
43	1426	71	-0.030361395404404
43	1544	72	0.13259496558546
43	1546	73	-0.067270925732412
44	116	27	4.1376842365597
44	117	28	4.7957545163416
44	118	29	6.3324253716616
44	119	30	7.3859955825826
44	120	31	7.8841633310707
44	121	32	2.6029736417616
44	122	33	0.973
44	123	34	0.973
44	124	35	0.973
44	125	36	0.973
44	126	37	0.973
44	128	38	0.973
44	244	39	1.3520827596758
44	246	40	1.6507733889098
44	247	41	1.5845189507038
44	248	42	1.4611644342154
44	249	43	1.5336981339259
44	250	44	1.8459736139456
44	251	45	0.973
44	252	46	3.0579743190557
44	253	47	0.973
44	254	48	6.3019036671195
44	255	49	6.1555679694727
44	256	50	8.1642209683009
44	257	51	6.5984830126306
44	258	52	1.6493379923332
44	260	53	1.2878692243668
44	338	54	1.1706823594365
44	340	55	1.5545716923155
44	420	56	1.785969643097
44	422	57	1.6501435766801
44	502	58	1.5304133972143
44	504	59	1.5554018447418
44	595	60	1.8345194841303
44	597	61	1.6100712313722
44	702	62	2.2585055912419
44	704	63	1.9028459233553
44	809	64	1.879922111882
44	811	65	1.5838618535685
44	921	66	1.845065271018
44	923	67	1.769118456285
44	1039	68	2.0441634949952
44	1128	69	2.1397069678031
44	1241	70	1.6364382403525
44	1426	71	1.8110914071666
44	1544	72	2.3227709925777
44	1546	73	1.703926593012
45	117	28	2414.8739556831
45	118	29	2411.9824938183
45	119	30	2407.2767486298
45	120	31	2402.3079262363
45	121	32	2395.9700331651
45	122	33	2388.2243426732
45	123	34	2379.1798498989
45	124	35	2369.4000369494
[...]
224	5134	152	1.8276363247584
224	5136	153	0.973
224	5301	154	0.973
224	5303	155	6.1608096599052
224	5476	156	7.2950515588995
224	5478	157	8.0832878510019
224	5657	158	6.0550960462033
224	6045	159	2.2058667104228
224	6221	160	1.8101248672441
224	6223	161	2.2108062188148
224	6403	162	1.9668190732831
224	6405	163	1.9953239816811
225	4184	136	2414.8606275192
225	4185	137	2411.7675365397
225	4186	138	2406.9670441359
225	4187	139	2401.6902585772
225	4188	140	2395.0413960395
225	4189	141	2387.1206568544
225	4190	142	2377.8074452318
225	4192	143	2368.0261674369
225	4330	144	2358.2360770169
225	4332	145	2348.4504978438
225	4693	146	2339.1951177721
225	4695	147	2334.0858184353
225	4829	148	2339.8852691577
225	4831	149	2350.1396141677
225	4973	150	2359.9340979068
225	4975	151	2372.3562317775
225	5134	152	2384.9696291004
225	5136	153	2397.2505828175
225	5301	154	2406.8476498994
225	5303	155	2415.4721535987
225	5476	156	2423.1908418111
225	5478	157	2430.2663136196
225	5657	158	2431.9051159247
225	6045	159	2433.6537419454
225	6221	160	2435.6775916435
225	6223	161	2437.760279941
225	6403	162	2438.8496084785
225	6405	163	2439.7755151092
226	4184	136	1578.4565915735
226	4185	137	1579.5923584383
226	4186	138	1581.7508398471
226	4187	139	1587.0954966601
226	4188	140	1593.8298784271
226	4189	141	1601.8524960177
226	4190	142	1611.2854963532
226	4192	143	1621.1925832378
226	4330	144	1631.1085960977
226	4332	145	1641.020039686
226	4693	146	1651.4248492336
226	4695	147	1663.9131680802
226	4829	148	1675.3518840279
226	4831	149	1684.0966312792
226	4973	150	1692.9295420395
226	4975	151	1695.6709564701
226	5134	152	1697.3166614873
226	5136	153	1698.5155938296
226	5301	154	1699.4230606109
226	5303	155	1700.2385650286
226	5476	156	1700.9302714635
226	5478	157	1702.9582990641
226	5657	158	1712.3593009794
226	6045	159	1723.8661493277
226	6221	160	1737.1841094177
226	6223	161	1750.9654880911
226	6403	162	1764.8695028778
226	6405	163	1778.7568690432
227	4185	137	4.2020141742253
227	4186	138	6.2547166510895
227	4187	139	8.4094587924858
227	4188	140	10.337069441589
227	4189	141	12.133498071296
227	4190	142	13.874075698839
227	4192	143	13.885680944896
227	4330	144	13.889717270082
227	4332	145	13.893452649817
227	4693	146	13.968066065444
227	4695	147	13.920932853583
227	4829	148	13.697535099525
227	4831	149	13.373378543111
227	4973	150	13.067217614927
227	4975	151	12.857161032279
227	5134	152	12.629294247119
227	5136	153	11.371179599123
227	5301	154	8.1969549710427
227	5303	155	9.0123755295813
227	5476	156	6.454229738801
227	5478	157	8.5026700912907
227	5657	158	10.473548244061
227	6045	159	12.461620102197
227	6221	160	13.914966332691
227	6223	161	13.981579080205
227	6403	162	13.918576609099
227	6405	163	13.886682668871
228	4186	138	2.0527024768642
228	4187	139	2.1547421413963
228	4188	140	1.9276106491033
228	4189	141	1.7964286297071
228	4190	142	1.7405776275424
228	4192	143	0.011605246057734
228	4330	144	0.0040363251860267
228	4332	145	0.0037353797350068
228	4693	146	0.074613415626809
228	4695	147	-0.047133211861365
228	4829	148	-0.22339775405822
228	4831	149	-0.32415655641352
228	4973	150	-0.30616092818445
228	4975	151	-0.21005658264794
228	5134	152	-0.2278667851601
228	5136	153	-1.2581146479953
228	5301	154	-3.1742246280805
228	5303	155	0.81542055853859
228	5476	156	-2.5581457907803
228	5478	157	2.0484403524897
228	5657	158	1.9708781527705
228	6045	159	1.9880718581355
228	6221	160	1.4533462304946
228	6223	161	0.066612747514155
228	6403	162	-0.063002471106593
228	6405	163	-0.031893940228036
229	4186	138	4.5285485072937
229	4187	139	5.9375826710348
229	4188	140	6.512827625732
229	4189	141	7.1134058964697
229	4190	142	7.8458806320652
229	4192	143	2.0660101570186
229	4330	144	2.041095532179
229	4332	145	2.0404714691404
229	4693	146	2.2867479285811
229	4695	147	1.8726335017092
229	4829	148	1.2707199556361
229	4831	149	0.973
229	4973	150	0.973
229	4975	151	1.2756928211494
229	5134	152	1.2117725427658
229	5136	153	0.973
229	5301	154	0.973
229	5303	155	3.3834585734002
229	5476	156	0.973
229	5478	157	5.774502682301
229	5657	158	6.696120954646
229	6045	159	7.8605968938812
229	6221	160	6.9039612871671
229	6223	161	2.2614154223331
229	6403	162	1.8191885983467
229	6405	163	1.9205364986498
230	4187	139	2414.8833766948
230	4188	140	2411.9736998194
230	4189	141	2407.3316752824
230	4190	142	2402.3550032958
230	4192	143	2396.1245509364
230	4330	144	2388.5209144219
230	4332	145	2380.2984044222
230	4693	146	2372.0710739787
230	4695	147	2363.8390580388
230	4829	148	2355.6017477706
230	4831	149	2347.3670692763
230	4973	150	2339.6357872116
230	4975	151	2334.5629488912
230	5134	152	2336.0159854963
230	5136	153	2345.0622612104
230	5301	154	2353.7696982229
230	5303	155	2362.9295780568
230	5476	156	2374.5060975194
230	5478	157	2386.097291244
230	5657	158	2397.7515241671
230	6045	159	2409.4193154409
230	6221	160	2419.4960377231
230	6223	161	2426.668470919
230	6403	162	2431.1932221544
230	6405	163	2432.8465612544
231	4187	139	1578.4482381949
231	4188	140	1579.5166563578
231	4189	141	1581.381518729
231	4190	142	1586.4222018383
231	4192	143	1592.7327917377
231	4330	144	1600.4342280095
231	4332	145	1608.7624978619
231	4693	146	1617.0956501598
231	4695	147	1625.4335482195
231	4829	148	1633.7768087052
231	4831	149	1642.1174035659
231	4973	150	1650.8607237646
231	4975	151	1661.0397033207
231	5134	152	1672.099522843
231	5136	153	1679.5326164411
231	5301	154	1687.3703320036
231	5303	155	1694.2619694537
231	5476	156	1695.9922935013
231	5478	157	1697.4508784479
231	5657	158	1698.5629611798
231	6045	159	1699.666228761
231	6221	160	1700.6190501442
231	6223	161	1701.1346556228
231	6403	162	1707.6746779904
231	6405	163	1718.5544899497
232	4188	140	3.9728593152307
232	4189	141	5.9612720722227
232	4190	142	7.8485327200021
232	4192	143	9.7398787253757
232	4330	144	11.718346724879
232	4332	145	11.738617610756
232	4693	146	11.683577761451
232	4695	147	11.770441436834
232	4829	148	11.774194772173
232	4831	149	11.720059272136
232	4973	150	11.646042386255
232	4975	151	11.680541682738
232	5134	152	11.771541060453
232	5136	153	11.716253604453
232	5301	154	11.731189722767
232	5303	155	11.69300292944
232	5476	156	11.772197548774
232	5478	157	11.715298254177
232	5657	158	11.710023663721
232	6045	159	11.734267668034
232	6221	160	8.1768141974502
232	6223	161	7.9368141974502
232	6403	162	9.9135536695894
232	6405	163	11.810985352129
233	4189	141	1.988412756992
233	4190	142	1.8872606477793
233	4192	143	1.8913460053736
233	4330	144	1.9784679995035
233	4332	145	0.020270885876625
233	4693	146	-0.055039849304594
233	4695	147	0.086863675382919
233	4829	148	0.003753335338553
233	4831	149	-0.054135500036647
233	4973	150	-0.074016885880846
233	4975	151	0.034499296483119
233	5134	152	0.09099937771447
233	5136	153	-0.055287456000224
233	5301	154	0.014936118314509
233	5303	155	-0.038186793327332
233	5476	156	0.079194619334304
233	5478	157	-0.056899294597097
233	5657	158	-0.0052745904563931
233	6045	159	0.024244004313369
233	6221	160	-3.5574534705837
233	6223	161	-0.24
233	6403	162	1.9767394721392
233	6405	163	1.8974316825392
234	4189	141	4.2738278402126
234	4190	142	5.1030219065469
234	4192	143	6.1047844628984
234	4330	144	7.4113795116961
234	4332	145	1.8830424898429
234	4693	146	1.6659708374904
234	4695	147	2.0748539217033
234	4829	148	1.8394253954887
234	4831	149	1.6711855973126
234	4973	150	1.6099798095149
234	4975	151	1.9178034615887
234	5134	152	2.0867049568296
234	5136	153	1.667654155607
234	5301	154	1.867281859771
234	5303	155	1.7141494786753
234	5476	156	2.0532849600477
234	5478	157	1.663033613763
234	5657	158	1.8083418480796
234	6045	159	1.8938811575646
234	6221	160	0.973
234	6223	161	0.973
234	6403	162	6.400993211452
234	6405	163	7.2329073044412
235	4190	142	2414.8344336114
235	4192	143	2411.9458734991
235	4330	144	2407.4483631061
235	4332	145	2402.6311191204
235	4693	146	2396.4117013247
235	4695	147	2389.2101220854
235	4829	148	2381.9519863494
235	4831	149	2374.7053195141
235	4973	150	2367.4590013133
235	4975	151	2360.2059567532
235	5134	152	2352.9485437162
235	5136	153	2345.6790898727
235	5301	154	2338.9889094976
235	5303	155	2334.6182469977
235	5476	156	2334.9259089838
235	5478	157	2342.645286529
235	5657	158	2350.4458346425
235	6045	159	2358.123528052
235	6221	160	2367.3411390648
235	6223	161	2377.6014160644
235	6403	162	2387.8813319632
235	6405	163	2398.1522163422
236	4190	142	1578.4662098391
236	4192	143	1579.5268740375
236	4330	144	1581.2633300396
236	4332	145	1586.1425345475
236	4693	146	1592.4419479538
236	4695	147	1599.7361555947
236	4829	148	1607.0876471754
236	4831	149	1614.4275223399
236	4973	150	1621.7670443859
236	4975	151	1629.1133793062
236	5134	152	1636.4641388925
236	5136	153	1643.8270941563
236	5301	154	1651.6888279198
236	5303	155	1660.7066766638
236	5476	156	1670.7862711838
236	5478	157	1677.5807640357
236	5657	158	1684.3727885736
236	6045	159	1691.2967247944
236	6221	160	1694.9213584969
236	6223	161	1696.4396797027
236	6403	162	1697.6296685943
236	6405	163	1698.6008493006
237	4192	143	3.8298766437329
237	4330	144	5.7609484555658
237	4332	145	7.8167959182237
237	4693	146	9.7242357408015
237	4695	147	10.323466641469
237	4829	148	10.322245812585
237	4831	149	10.309759074854
237	4973	150	10.270631303428
237	4975	151	10.327059451101
237	5134	152	10.36915187809
237	5136	153	10.316301012059
237	5301	154	10.298695557177
237	5303	155	10.318488121956
237	5476	156	10.361071953414
237	5478	157	10.287407639812
237	5657	158	10.300305642592
237	6045	159	10.358172929947
237	6221	160	10.308023457305
237	6223	161	10.385751154156
237	6403	162	10.394566427449
237	6405	163	10.294283197211
238	4330	144	1.931071811833
238	4332	145	2.0558474626578
238	4693	146	1.9074398225779
238	4695	147	0.5992309006672
238	4829	148	-0.0012208288838167
238	4831	149	-0.012486737731377
238	4973	150	-0.039127771425992
238	4975	151	0.05642814767314
238	5134	152	0.042092426989694
238	5136	153	-0.052850866031367
238	5301	154	-0.01760545488214
238	5303	155	0.019792564779054
238	5476	156	0.042583831457886
238	5478	157	-0.073664313601331
238	5657	158	0.012898002779112
238	6045	159	0.057867287355474
238	6221	160	-0.050149472642223
238	6223	161	0.077727696851362
238	6403	162	0.008815273293294
238	6405	163	-0.10028323023813
239	4330	144	4.0866488010554
239	4332	145	5.4041083766265
239	4693	146	6.134205461555
239	4695	147	3.2005002445109
239	4829	148	1.7065084979692
239	4831	149	1.6775496797514
239	4973	150	1.6086892023668
239	4975	151	1.8503595001324
239	5134	152	1.8183871547706
239	5136	153	1.5776839574406
239	5301	154	1.6640191364472
239	5303	155	1.7584725888886
239	5476	156	1.8189018858736
239	5478	157	1.5242062878219
239	5657	158	1.7398582895628
239	6045	159	1.8567984517737
239	6221	160	1.583857025254
239	6223	161	1.9090455711587
239	6403	162	1.7372678315979
239	6405	163	1.458578231705
240	4332	145	2414.8609813555
240	4693	146	2411.8564087412
240	4695	147	2407.2359651102
240	4829	148	2402.2893107277
240	4831	149	2395.9311400544
240	4973	150	2388.2020966067
240	4975	151	2379.8054387381
240	5134	152	2371.4125118218
240	5136	153	2363.0234946099
240	5301	154	2354.6382818297
240	5303	155	2346.2497709888
240	5476	156	2338.558841291
240	5478	157	2334.3162769399
240	5657	158	2336.7169737368
240	6045	159	2345.2648375152
240	6221	160	2353.2768725042
240	6223	161	2361.2603870186
240	6403	162	2371.7627626953
240	6405	163	2382.1741124208
241	4332	145	1578.4564616466
241	4693	146	1579.5597250294
241	4695	147	1581.4784599477
241	4829	148	1586.4887393601
241	4831	149	1592.9286903162
241	4973	150	1600.7571465336
241	4975	151	1609.2618041858
241	5134	152	1617.762682897
241	5136	153	1626.2596016163
241	5301	154	1634.7526669707
241	5303	155	1643.249072806
241	5476	156	1652.2393821608
241	5478	157	1662.5252575343
241	5657	158	1672.793294942
241	6045	159	1679.7004355947
241	6221	160	1686.9258894268
241	6223	161	1694.0124781104
241	6403	162	1695.5822515851
241	6405	163	1696.9839326162
242	4693	146	4.0897017584328
242	4695	147	5.9641260776885
242	4829	148	7.9216620601231
242	4831	149	9.9970910490683
242	4973	150	11.809897075901
242	4975	151	11.942655732986
242	5134	152	11.919867285831
242	5136	153	11.891696739791
242	5301	154	11.883443170568
242	5303	155	11.892457123511
242	5476	156	11.626004771688
242	5478	157	11.40015138355
242	5657	158	11.116214225606
242	6045	159	10.917636063804
242	6221	160	10.678203023719
242	6223	161	10.610119402308
242	6403	162	10.573590516654
242	6405	163	10.481263448503
243	4695	147	1.8744243192556
243	4829	148	1.9575359824346
243	4831	149	2.0754289889452
243	4973	150	1.8128060268331
243	4975	151	0.13275865708489
243	5134	152	-0.022788447155618
243	5136	153	-0.028170546039473
243	5301	154	-0.0082535692234522
243	5303	155	0.0090139529434961
243	5476	156	-0.26645235182363
243	5478	157	-0.22585338813757
243	5657	158	-0.28393715794413
243	6045	159	-0.19857816180173
243	6221	160	-0.2394330400857
243	6223	161	-0.068083621410155
243	6403	162	-0.036528885654148
243	6405	163	-0.092327068151663
244	4695	147	4.1115195186441
244	4829	148	5.2752352499332
244	4831	149	6.6848868269423
244	4973	150	6.9914548001988
244	4975	151	2.2255701751092
244	5134	152	1.7760044002933
244	5136	153	1.7582689776792
244	5301	154	1.8146440473463
244	5303	155	1.8649041274609
244	5476	156	0.973
244	5478	157	1.1762942920614
244	5657	158	0.973
244	6045	159	1.2343927397773
244	6221	160	0.973
244	6223	161	1.5580798338797
244	6403	162	1.6361902146084
244	6405	163	1.488768045918
245	4829	148	2414.8492548425
245	4831	149	2411.8853732264
245	4973	150	2407.1026815508
245	4975	151	2401.998469814
245	5134	152	2395.5641233488
245	5136	153	2387.6811016564
245	5301	154	2378.9354493049
245	5303	155	2370.1464156314
245	5476	156	2361.3682143758
245	5478	157	2352.592663326
245	5657	158	2343.8145420849
245	6045	159	2336.0317822468
245	6221	160	2333.9156580711
245	6223	161	2341.6923677977
245	6403	162	2351.1262614634
245	6405	163	2360.4072482915
246	4829	148	1578.4607675606
246	4831	149	1579.5490894215
246	4973	150	1581.6134578316
246	4975	151	1586.7833211375
246	5134	152	1593.3004276762
246	5136	153	1601.284842643
246	5301	154	1610.1429836275
246	5303	155	1619.0450639138
246	5476	156	1627.9361724537
246	5478	157	1636.8245967003
246	5657	158	1645.7156241955
246	6045	159	1655.4744110545
246	6221	160	1667.5867454801
246	6223	161	1676.8112248536
246	6403	162	1684.9864145229
246	6405	163	1693.3562409077
247	4831	149	4.0822673356419
247	4973	150	6.1599212349279
247	4975	151	8.1308807928048
247	5134	152	10.057608686425
247	5136	153	12.07552741895
247	5301	154	12.512755186727
247	5303	155	12.506540587867
247	5476	156	12.51167325532
247	5478	157	12.434566258683
247	5657	158	12.474227234027
247	6045	159	12.500278037984
247	6221	160	12.482073673868
247	6223	161	12.553672257
247	6403	162	12.539497534355
247	6405	163	12.358185133603
248	4973	150	2.0776538992859
248	4975	151	1.9709595578769
248	5134	152	1.9267278936203
248	5136	153	2.0179187325248
248	5301	154	0.43722776777703
248	5303	155	-0.0062145988596605
248	5476	156	0.0051326674525622
248	5478	157	-0.077106996637303
248	5657	158	0.039660975344013
248	6045	159	0.026050803957041
248	6221	160	-0.018204364115372
248	6223	161	0.071598583131562
248	6403	162	-0.014174722644967
248	6405	163	-0.18131240075179
249	4973	150	4.5131092976822
249	4975	151	5.4140698288997
249	5134	152	6.359328008996
249	5136	153	7.727738630756
249	5301	154	3.2130883953437
249	5303	155	1.8752951156181
249	5476	156	1.9099731725401
249	5478	157	1.6563834454305
249	5657	158	2.0103028379842
249	6045	159	1.9719327450985
249	6221	160	1.8370255906077
249	6223	161	2.1149676519739
249	6403	162	1.8542123372192
249	6405	163	1.3405079812676
250	4975	151	2414.8762668803
250	5134	152	2411.8261519175
250	5136	153	2407.1047528231
250	5301	154	2402.0154935583
250	5303	155	2395.4588045017
250	5476	156	2387.4345624379
250	5478	157	2378.4533583922
250	5657	158	2369.4479464534
250	6045	159	2360.4343164999
250	6221	160	2351.4320721629
250	6223	161	2342.5090906825
250	6403	162	2335.1476595557
250	6405	163	2334.6030804353
251	4975	151	1578.4508488812
251	5134	152	1579.5708351778
251	5136	153	1581.6113599185
251	5301	154	1586.7660784302
251	5303	155	1593.4071011599
251	5476	156	1601.5345529076
251	5478	157	1610.6312753065
251	5657	158	1619.7525169663
251	6045	159	1628.8820823431
251	6221	160	1638.0001156591
251	6223	161	1647.1824481152
251	6403	162	1657.5183487963
251	6405	163	1670.1031846898
252	5134	152	4.1418937353608
252	5136	153	6.1258795548724
252	5301	154	8.1740769761921
252	5303	155	10.324716889346
252	5476	156	12.381987872953
252	5478	157	12.766610071339
252	5657	158	12.880799538702
252	6045	159	12.854165243054
252	6221	160	12.86732746717
252	6223	161	12.827286015946
252	6403	162	12.807315916004
252	6405	163	12.784308620581
253	5136	153	1.9839858195116
253	5301	154	2.0481974213198
253	5303	155	2.1506399131543
253	5476	156	2.0572709836066
253	5478	157	0.38462219838611
253	5657	158	0.11418946736259
253	6045	159	-0.026634295647964
253	6221	160	0.013162224115804
253	6223	161	-0.04004145122366
253	6403	162	-0.019970099942293
253	6405	163	-0.023007295422723
254	5136	153	4.3557803093851
254	5301	154	5.589622425855
254	5303	155	7.0610820206815
254	5476	156	8.0216906100427
254	5478	157	3.1014691821156
254	5657	158	2.2832695646883
254	6045	159	1.8437781824775
254	6221	160	1.9683420118837
254	6223	161	1.7999792454937
254	6403	162	1.8602508753111
254	6405	163	1.8488500900337
255	5301	154	2414.8455331938
255	5303	155	2411.9470224651
255	5476	156	2407.2931785593
255	5478	157	2402.3623941512
255	5657	158	2396.1101705056
255	6045	159	2388.4355789431
255	6221	160	2379.2552168684
255	6223	161	2369.4780743151
255	6403	162	2359.6949284088
255	6405	163	2349.8976010608
256	5301	154	1578.4621341303
256	5303	155	1579.5264521427
256	5476	156	1581.4205106059
256	5478	157	1586.4147159206
256	5657	158	1592.7473571328
256	6045	159	1600.5206610933
256	6221	160	1609.8191031385
256	6223	161	1619.7220015926
256	6403	162	1629.6309806174
256	6405	163	1639.5543234879
257	5303	155	3.9558952104144
257	5476	156	5.9523125407851
257	5478	157	7.8841146542301
257	5657	158	9.7186212694931
257	6045	159	11.957640047384
257	6221	160	13.904710916687
257	6223	161	13.885228155626
257	6403	162	13.95547943695
257	6405	163	13.970314975511
258	5476	156	1.9964173303707
258	5478	157	1.931802113445
258	5657	158	1.8345066152629
258	6045	159	2.2390187778906
258	6221	160	1.9470708693028
258	6223	161	-0.019482761060992
258	6403	162	0.070251281324307
258	6405	163	0.014835538561456
259	5476	156	4.2804966713596
259	5478	157	5.2061642729068
259	5657	158	5.9603833740156
259	6045	159	8.2971674595354
259	6221	160	8.5538133390101
259	6223	161	1.9619318126381
259	6403	162	2.2705634193504
259	6405	163	2.0857555756618
260	5478	157	2414.8561439321
260	5657	158	2411.9407034959
260	6045	159	2407.3851410372
260	6221	160	2402.5799917858
260	6223	161	2396.5294817827
260	6403	162	2389.1092775728
260	6405	163	2380.2727323152
261	5478	157	1578.4582379228
261	5657	158	1579.5287724352
261	6045	159	1581.3273652857
261	6221	160	1586.1943194941
261	6223	161	1592.3226525765
261	6403	162	1599.8382971929
261	6405	163	1608.7885001693
262	5657	158	3.894362128734
262	6045	159	5.8372962163188
262	6221	160	7.6032123153549
262	6223	161	9.560954693566
262	6403	162	11.518918530174
262	6405	163	13.137388215174
263	6045	159	1.9429340875847
263	6221	160	1.7659160990361
263	6223	161	1.9577423782111
263	6403	162	1.9579638366075
263	6405	163	1.6184696850001
264	6045	159	4.1432624595407
264	6221	160	4.7532015586433
264	6223	161	6.1629687422954
264	6403	162	7.2422877359005
264	6405	163	7.0774609383008
265	6221	160	2414.8906439304
265	6223	161	2411.9482634418
265	6403	162	2407.2834108763
265	6405	163	2402.2334207009
266	6221	160	1578.4455697034
266	6223	161	1579.5259964624
266	6403	162	1581.4304039236
266	6405	163	1586.5453482578
267	6223	161	4.0435997821582
267	6403	162	6.0241328893677
267	6405	163	8.0773185104765
268	6403	162	1.9805331072095
268	6405	163	2.0531856211089
269	6403	162	4.296169456004
269	6405	163	5.545132954727
270	6405	163	2414.875786207
271	6405	163	1578.4510253817

