file 642045 1692814471                                          
version 2
run Default-0-20230823-15:11:16-9881
attr configname Default
attr datetime 20230823-15:11:16
attr experiment Default
attr inifile omnetpp.ini
attr iterationvars ""
attr iterationvarsf ""
attr measurement ""
attr network RSUExampleScenario
attr processid 9881
attr repetition 0
attr replication #0
attr resultdir results
attr runnumber 0
attr seedset 0
param *.playgroundSizeX 2500m
param *.playgroundSizeY 2500m
param *.playgroundSizeZ 50m
param *.annotations.draw true
param *.obstacles.obstacles "xmldoc(\"config.xml\", \"//AnalogueModel[@type='SimpleObstacleShadowing']/obstacles\")"
param *.manager.updateInterval 1s
param *.manager.host "\"localhost\""
param *.manager.port 9999
param *.manager.autoShutdown true
param *.manager.launchConfig "xmldoc(\"erlangen.launchd.xml\")"
param *.rsu[0].mobility.x 2000
param *.rsu[0].mobility.y 2000
param *.rsu[0].mobility.z 3
param *.rsu[*].applType "\"TraCIDemoRSU11p\""
param *.rsu[*].appl.headerLength "80 bit"
param *.rsu[*].appl.sendBeacons false
param *.rsu[*].appl.dataOnSch false
param *.rsu[*].appl.beaconInterval 1s
param *.rsu[*].appl.beaconUserPriority 7
param *.rsu[*].appl.dataUserPriority 5
param *.rsu[*].nic.phy80211p.antennaOffsetZ "0 m"
param *.connectionManager.sendDirect true
param *.connectionManager.maxInterfDist 2600m
param *.connectionManager.drawMaxIntfDist false
param *.**.nic.mac1609_4.useServiceChannel false
param *.**.nic.mac1609_4.txPower 20mW
param *.**.nic.mac1609_4.bitrate 6Mbps
param *.**.nic.phy80211p.minPowerLevel -110dBm
param *.**.nic.phy80211p.useNoiseFloor true
param *.**.nic.phy80211p.noiseFloor -98dBm
param *.**.nic.phy80211p.decider "xmldoc(\"config.xml\")"
param *.**.nic.phy80211p.analogueModels "xmldoc(\"config.xml\")"
param *.**.nic.phy80211p.usePropagationDelay true
param *.**.nic.phy80211p.antenna "xmldoc(\"antenna.xml\", \"/root/Antenna[@id='monopole']\")"
param *.node[*].nic.phy80211p.antennaOffsetY "0 m"
param *.node[*].nic.phy80211p.antennaOffsetZ "1.895 m"
param *.node[*].applType "\"TraCIDemo11p\""
param *.node[*].appl.headerLength "80 bit"
param *.node[*].appl.sendBeacons false
param *.node[*].appl.dataOnSch false
param *.node[*].appl.beaconInterval 1s
param *.node[*].veinsmobility.x 0
param *.node[*].veinsmobility.y 0
param *.node[*].veinsmobility.z 0
param *.node[*].veinsmobility.setHostSpeed false

vector 0 RSUExampleScenario.node[0].veinsmobility posx ETV
vector 1 RSUExampleScenario.node[0].veinsmobility posy ETV
vector 2 RSUExampleScenario.node[0].veinsmobility speed ETV
vector 3 RSUExampleScenario.node[0].veinsmobility acceleration ETV
vector 4 RSUExampleScenario.node[0].veinsmobility co2emission ETV
vector 5 RSUExampleScenario.node[1].veinsmobility posx ETV
vector 6 RSUExampleScenario.node[1].veinsmobility posy ETV
vector 7 RSUExampleScenario.node[1].veinsmobility speed ETV
vector 8 RSUExampleScenario.node[1].veinsmobility acceleration ETV
vector 9 RSUExampleScenario.node[1].veinsmobility co2emission ETV
vector 10 RSUExampleScenario.node[2].veinsmobility posx ETV
vector 11 RSUExampleScenario.node[2].veinsmobility posy ETV
vector 12 RSUExampleScenario.node[2].veinsmobility speed ETV
vector 13 RSUExampleScenario.node[2].veinsmobility acceleration ETV
vector 14 RSUExampleScenario.node[2].veinsmobility co2emission ETV
vector 15 RSUExampleScenario.node[3].veinsmobility posx ETV
vector 16 RSUExampleScenario.node[3].veinsmobility posy ETV
vector 17 RSUExampleScenario.node[3].veinsmobility speed ETV
vector 18 RSUExampleScenario.node[3].veinsmobility acceleration ETV
vector 19 RSUExampleScenario.node[3].veinsmobility co2emission ETV
vector 20 RSUExampleScenario.node[4].veinsmobility posx ETV
vector 21 RSUExampleScenario.node[4].veinsmobility posy ETV
vector 22 RSUExampleScenario.node[4].veinsmobility speed ETV
vector 23 RSUExampleScenario.node[4].veinsmobility acceleration ETV
vector 24 RSUExampleScenario.node[4].veinsmobility co2emission ETV
vector 25 RSUExampleScenario.node[5].veinsmobility posx ETV
vector 26 RSUExampleScenario.node[5].veinsmobility posy ETV
0	4025 365 2 17 1 16 16 2334.5620136983 2414.8476884116 37973.743431992 90136672.833758
1	4390 367 2 17 1 16 16 1578.4613427464 1695.5671389326 26068.828349785 42500430.204152
2	4757 343 3 17 2 16 15 4.1061966058897 13.995233640105 177.90500575031 2268.9591457552
3	5100 342 4 17 3 16 14 -0.1021267059911 2.1224504257739 9.8890370342153 18.057027335075
4	5442 322 4 17 3 16 14 1.6857621818206 8.9023657158011 50.436874885368 246.82639262509
5	5764 300 5 17 4 16 13 2334.6305580324 2414.8767583254 30896.728949958 73441759.726695
6	6064 300 5 17 4 16 13 1578.4506684253 1673.301875555 20996.28545353 33923770.167652
7	6364 278 6 17 5 16 12 4.0332649588119 13.987373048679 135.52864157399 1674.1565996986
8	6642 271 7 17 6 16 11 -0.096765000070445 1.9587017235276 9.8537397511746 17.879437998142
9	6913 257 7 17 6 16 11 1.7037407999188 8.2432295261252 43.981839614183 227.94919999919
10	7170 245 8 17 7 16 10 2350.1637192596 2414.8848622198 23880.919136568 57034406.499453
11	7415 244 8 17 7 16 10 1578.4476927174 1639.2847824143 16016.302464242 25656517.645118
12	7659 220 9 17 8 16 9 3.930963162637 13.941568216505 94.564232272313 1111.3834870071
13	7879 205 10 17 9 16 8 -0.060288446615449 1.9953480610903 9.9669052782639 18.919165069774
14	8084 198 10 17 9 16 8 1.825038103975 8.2469806235914 38.223271485274 222.52497337648
15	8282 175 11 17 10 16 7 2378.2983909701 2414.8652957816 16797.393621676 40308553.97966
16	8457 175 11 17 10 16 7 1578.4548774119 1610.7882359559 11131.81150881 17703358.790895
17	8632 150 12 17 11 16 6 4.0076977833542 13.909239285488 54.680830363724 568.04918162051
18	8782 125 13 17 12 16 5 1.6463802463939 2.1600366940722 9.901541502134 19.76467837258
19	8907 124 13 17 12 16 5 4.6399364442395 8.0324172249288 32.341580114847 217.20753579437
20	9031 100 14 17 13 16 4 2402.1104710221 2414.9020294819 9636.0908745036 23213656.075972
21	9131 100 14 17 13 16 4 1578.4413889889 1586.6698793434 6326.2063905392 10005261.759214
22	9231 74 15 17 14 16 3 4.1202440707026 7.9892263333931 18.207675223485 117.99225062756
23	9305 50 16 17 15 16 2 1.8910215140041 1.9779607486865 3.8689822626905 7.4882910897706
24	9355 49 16 17 15 16 2 4.3320714987557 5.183486961616 9.5155584603717 45.635380551575
25	9404 24 17 17 16 16 1 2414.866372544 2414.866372544 2414.866372544 5831579.5972437
26	9428 25 17 17 16 16 1 1578.4544820301 1578.4544820301 1578.4544820301 2491518.551841
vector 27 RSUExampleScenario.node[5].veinsmobility speed ETV
vector 28 RSUExampleScenario.node[5].veinsmobility acceleration ETV
vector 29 RSUExampleScenario.node[5].veinsmobility co2emission ETV
vector 30 RSUExampleScenario.node[6].veinsmobility posx ETV
vector 31 RSUExampleScenario.node[6].veinsmobility posy ETV
vector 32 RSUExampleScenario.node[6].veinsmobility speed ETV
vector 33 RSUExampleScenario.node[6].veinsmobility acceleration ETV
vector 34 RSUExampleScenario.node[6].veinsmobility co2emission ETV
vector 35 RSUExampleScenario.node[7].veinsmobility posx ETV
vector 36 RSUExampleScenario.node[7].veinsmobility posy ETV
vector 37 RSUExampleScenario.node[7].veinsmobility speed ETV
vector 38 RSUExampleScenario.node[7].veinsmobility acceleration ETV
vector 39 RSUExampleScenario.node[7].veinsmobility co2emission ETV
vector 40 RSUExampleScenario.node[8].veinsmobility posx ETV
vector 41 RSUExampleScenario.node[8].veinsmobility posy ETV
vector 42 RSUExampleScenario.node[8].veinsmobility speed ETV
vector 43 RSUExampleScenario.node[8].veinsmobility acceleration ETV
vector 44 RSUExampleScenario.node[8].veinsmobility co2emission ETV
vector 45 RSUExampleScenario.node[9].veinsmobility posx ETV
vector 46 RSUExampleScenario.node[9].veinsmobility posy ETV
vector 47 RSUExampleScenario.node[9].veinsmobility speed ETV
vector 48 RSUExampleScenario.node[9].veinsmobility acceleration ETV
vector 49 RSUExampleScenario.node[9].veinsmobility co2emission ETV
vector 50 RSUExampleScenario.node[10].veinsmobility posx ETV
vector 51 RSUExampleScenario.node[10].veinsmobility posy ETV
vector 52 RSUExampleScenario.node[10].veinsmobility speed ETV
vector 53 RSUExampleScenario.node[10].veinsmobility acceleration ETV
vector 54 RSUExampleScenario.node[10].veinsmobility co2emission ETV
vector 55 RSUExampleScenario.node[11].veinsmobility posx ETV
vector 56 RSUExampleScenario.node[11].veinsmobility posy ETV
vector 57 RSUExampleScenario.node[11].veinsmobility speed ETV
vector 58 RSUExampleScenario.node[11].veinsmobility acceleration ETV
vector 59 RSUExampleScenario.node[11].veinsmobility co2emission ETV
vector 60 RSUExampleScenario.node[12].veinsmobility posx ETV
vector 61 RSUExampleScenario.node[12].veinsmobility posy ETV
vector 62 RSUExampleScenario.node[12].veinsmobility speed ETV
vector 63 RSUExampleScenario.node[12].veinsmobility acceleration ETV
vector 64 RSUExampleScenario.node[12].veinsmobility co2emission ETV
vector 65 RSUExampleScenario.node[13].veinsmobility posx ETV
vector 66 RSUExampleScenario.node[13].veinsmobility posy ETV
vector 67 RSUExampleScenario.node[13].veinsmobility speed ETV
vector 68 RSUExampleScenario.node[13].veinsmobility acceleration ETV
vector 69 RSUExampleScenario.node[13].veinsmobility co2emission ETV
vector 70 RSUExampleScenario.node[14].veinsmobility posx ETV
vector 71 RSUExampleScenario.node[14].veinsmobility posy ETV
vector 72 RSUExampleScenario.node[14].veinsmobility speed ETV
vector 73 RSUExampleScenario.node[14].veinsmobility acceleration ETV
vector 74 RSUExampleScenario.node[14].veinsmobility co2emission ETV
vector 75 RSUExampleScenario.node[15].veinsmobility posx ETV
vector 76 RSUExampleScenario.node[15].veinsmobility posy ETV
vector 77 RSUExampleScenario.node[15].veinsmobility speed ETV
vector 78 RSUExampleScenario.node[15].veinsmobility acceleration ETV
vector 79 RSUExampleScenario.node[15].veinsmobility co2emission ETV
vector 80 RSUExampleScenario.node[16].veinsmobility posx ETV
vector 81 RSUExampleScenario.node[16].veinsmobility posy ETV
vector 82 RSUExampleScenario.node[16].veinsmobility speed ETV
vector 83 RSUExampleScenario.node[16].veinsmobility acceleration ETV
vector 84 RSUExampleScenario.node[16].veinsmobility co2emission ETV
vector 85 RSUExampleScenario.node[17].veinsmobility posx ETV
vector 86 RSUExampleScenario.node[17].veinsmobility posy ETV
vector 87 RSUExampleScenario.node[17].veinsmobility speed ETV
vector 88 RSUExampleScenario.node[17].veinsmobility acceleration ETV
vector 89 RSUExampleScenario.node[17].veinsmobility co2emission ETV
vector 90 RSUExampleScenario.node[18].veinsmobility posx ETV
vector 91 RSUExampleScenario.node[18].veinsmobility posy ETV
vector 92 RSUExampleScenario.node[18].veinsmobility speed ETV
vector 93 RSUExampleScenario.node[18].veinsmobility acceleration ETV
vector 94 RSUExampleScenario.node[18].veinsmobility co2emission ETV
vector 95 RSUExampleScenario.node[19].veinsmobility posx ETV
vector 96 RSUExampleScenario.node[19].veinsmobility posy ETV
vector 97 RSUExampleScenario.node[19].veinsmobility speed ETV
vector 98 RSUExampleScenario.node[19].veinsmobility acceleration ETV
vector 99 RSUExampleScenario.node[19].veinsmobility co2emission ETV
vector 100 RSUExampleScenario.node[20].veinsmobility posx ETV
vector 101 RSUExampleScenario.node[20].veinsmobility posy ETV
vector 102 RSUExampleScenario.node[20].veinsmobility speed ETV
vector 103 RSUExampleScenario.node[20].veinsmobility acceleration ETV
vector 104 RSUExampleScenario.node[20].veinsmobility co2emission ETV
vector 105 RSUExampleScenario.node[21].veinsmobility posx ETV
vector 106 RSUExampleScenario.node[21].veinsmobility posy ETV
vector 107 RSUExampleScenario.node[21].veinsmobility speed ETV
vector 108 RSUExampleScenario.node[21].veinsmobility acceleration ETV
vector 109 RSUExampleScenario.node[21].veinsmobility co2emission ETV
vector 110 RSUExampleScenario.node[22].veinsmobility posx ETV
vector 111 RSUExampleScenario.node[22].veinsmobility posy ETV
vector 112 RSUExampleScenario.node[22].veinsmobility speed ETV
vector 113 RSUExampleScenario.node[22].veinsmobility acceleration ETV
vector 114 RSUExampleScenario.node[22].veinsmobility co2emission ETV
vector 115 RSUExampleScenario.node[23].veinsmobility posx ETV
vector 116 RSUExampleScenario.node[23].veinsmobility posy ETV
vector 117 RSUExampleScenario.node[23].veinsmobility speed ETV
vector 118 RSUExampleScenario.node[23].veinsmobility acceleration ETV
vector 119 RSUExampleScenario.node[23].veinsmobility co2emission ETV
vector 120 RSUExampleScenario.node[24].veinsmobility posx ETV
vector 121 RSUExampleScenario.node[24].veinsmobility posy ETV
0	15551 1417 18 1546 17 73 57 2144.5614629743 2450.6248001783 135447.36076663 322371671.30037
1	16968 1419 18 1546 17 73 57 1697.3762977775 2120.9360540062 112145.38293407 221994159.12528
2	18387 1417 18 1546 17 73 57 6.8805052288885 13.999815066161 763.43358500585 10373.627459183
3	19804 1529 18 1546 17 73 57 -4.5 2.2078255666373 -7.1147284112165 66.591004767182
4	21333 1381 18 1546 17 73 57 0.973 8.7433911631671 129.68311363996 397.27129346125
5	22714 1417 18 1546 17 73 57 2177.2175397498 2450.4780716181 136097.54585488 325307790.38092
6	24131 1414 18 1546 17 73 57 1682.2138796467 2120.5707901428 110907.27109163 217321041.91368
7	25545 1418 18 1546 17 73 57 7.4783001788439 13.998578815588 772.07120682812 10556.998590015
8	26963 1559 18 1546 17 73 57 -4.4608324981877 2.0360211738362 0.020853057191706 33.337629533503
9	28522 1391 18 1546 17 73 57 0.973 8.4455276517466 129.68588109748 382.06995245877
10	29913 1471 18 1546 17 73 57 2214.3204117303 2450.659299592 136505.11347602 327149788.43329
11	31384 1471 18 1546 17 73 57 1649.4765304932 2120.9589145361 109659.52616408 212627987.2043
12	32855 1475 18 1546 17 73 57 7.4038563960913 13.997537077854 773.64320784859 10586.942956148
13	34330 1610 18 1546 17 73 57 -4.439656564949 1.8950757744233 0.051386014271994 33.095121409649
14	35940 1448 18 1546 17 73 57 0.973 8.0005078452345 129.84459181556 381.9413470444
15	37388 1471 18 1546 17 73 57 2254.0466482575 2450.5176811377 136885.21251405 328892932.92606
16	38859 1476 18 1546 17 73 57 1620.7154882178 2120.90069908 108271.83989861 207434522.11467
17	40335 1477 18 1546 17 73 57 6.8021452137647 13.999869057706 773.43266054282 10588.83217977
18	41812 1611 18 1546 17 73 57 -4.4516438954996 2.1227944273106 0.050519311807584 36.568729584467
19	43423 1440 18 1546 17 73 57 0.973 8.3694083781091 131.18324702106 394.27236287436
20	44863 1476 18 1546 17 73 57 2320.3213743683 2450.2645866362 137355.03469876 331082086.99084
21	46339 1471 18 1546 17 73 57 1593.0919447746 2120.7883864809 105922.81207965 198654204.54568
22	47810 1478 18 1546 17 73 57 6.6424673210172 13.992245385351 743.19610699457 9814.5410311931
23	49288 1606 18 1546 17 73 57 -3.0438156671366 2.2053875824949 5.9889226057089 37.550115118909
24	50894 1457 18 1546 17 73 57 0.973 8.3105242583869 141.10418915071 485.80594858131
25	52351 1475 18 1546 17 73 57 2334.2982135796 2450.2291497608 137580.7023542 332151821.87869
26	53826 1472 18 1546 17 73 57 1579.5372955538 2120.7722106203 104810.38955131 194565265.60091
27	55298 1469 18 1546 17 73 57 4.11254450365 13.998108282317 734.35273977768 9750.6227975378
28	56767 1564 19 1546 18 73 56 -2.7630936457253 2.2240570376068 9.8779718158088 50.346826654436
29	58331 1400 19 1546 18 73 56 0.973 8.8530434321966 149.6859360463 588.75945406372
30	59731 1429 20 1546 19 73 55 2334.0763715116 2450.4280289282 132882.54495691 321117478.88083
31	61160 1425 20 1546 19 73 55 1578.4572625495 2120.8566767089 99907.207034109 183133644.55485
32	62585 1395 21 1546 20 73 54 4.067372106413 13.986021694564 689.33753311307 9075.3957658814
33	63980 1478 22 1546 21 73 53 -4.5 2.2806860777922 9.8843597983275 56.584273722184
34	65458 1351 22 1546 21 73 53 0.973 7.9969762628647 142.72264602827 543.06682611121
35	66809 1348 23 1546 22 73 52 2334.0494864163 2450.4365012295 125450.08127667 302723777.42605
36	68157 1352 23 1546 22 73 52 1578.4561478766 2039.1371395849 91850.415488647 163212711.95128
37	69509 1328 25 1546 23 73 51 4.0608742667126 12.730371075567 573.84669565193 6635.6043384004
38	70837 1413 112 1546 24 73 50 -4.094616017928 2.2555459074327 8.6410734484829 42.426067268708
39	72250 1288 112 1546 24 73 50 0.973 7.8139621935621 118.64839516307 395.2308674376
40	73538 1273 114 1546 25 73 49 2333.8304737648 2450.3239084678 118235.90895473 285369873.76439
41	74811 1278 114 1546 25 73 49 1578.4503688179 2021.2372548133 86323.330175313 152919301.60628
42	76089 1246 115 1546 26 73 48 4.0643546214392 13.915266969802 555.43116648064 6650.2510591735
43	77335 1309 116 1546 27 73 47 -2.5356489940785 2.2392650089366 8.6088603711189 46.102106880037
44	78644 1143 116 1546 27 73 47 0.973 8.1642209683009 119.15575524688 492.50100694168
45	79787 1197 117 1546 28 73 46 2334.4106986645 2450.5540833102 111018.13598732 267997386.12733
46	80984 1196 117 1546 28 73 46 1578.4516975414 2003.2453790344 80757.478878815 142509659.0149
47	82180 1169 118 1546 29 73 45 3.8828872453123 13.97994910137 537.56112246237 6684.195906313
48	83349 1216 119 1546 30 73 44 -2.1823455372089 2.1636936872965 8.8609570893369 47.181641514397
49	84565 1077 119 1546 30 73 44 0.973 8.0769545765064 118.18455486696 506.46490084062
50	85642 1118 120 1546 31 73 43 2334.1012518223 2450.3828549772 103740.17366783 250337919.60755
51	86760 1118 120 1546 31 73 43 1578.4486005865 1984.421273523 75111.47626071 131822826.44374
52	87878 1089 121 1546 32 73 42 4.1947202222332 13.991812187003 519.08844769629 6680.0501690168
53	88967 1141 122 1546 33 73 41 -3.1158763178945 2.2461710704397 8.8135591307035 53.073983210414
54	90108 1020 122 1546 33 73 41 0.973 8.8976355453378 117.66280708357 528.34118082259
55	91128 1042 123 1546 34 73 40 2334.3055988246 2450.2307157078 96371.144436887 232241477.80365
56	92170 1044 123 1546 34 73 40 1578.4356359942 1947.6955619901 69172.907570619 120092036.94407
57	93214 1015 124 1546 35 73 39 3.8489417596173 13.984478115658 482.66467610556 6211.7066851399
58	94229 1065 125 1546 36 73 38 -3.7792833418176 2.3961217227788 10.090020442697 52.85193704253
59	95294 970 125 1546 36 73 38 0.973 8.73746890554 111.83397025714 486.59565495684
60	96264 964 126 1546 37 73 37 2333.9421702074 2448.6081123141 88999.074267334 214127563.2052
61	97228 962 126 1546 37 73 37 1578.451217806 1900.2224980909 63275.820148314 108530272.45769
62	98190 940 128 1546 38 73 36 3.9219617499206 13.999378900521 435.49263964861 5500.5856486343
63	99130 961 244 1546 39 73 35 -4.5 2.0558448842494 10.0774171506 51.0283290485
64	100091 894 244 1546 39 73 35 0.973 8.3627117543138 104.10689606241 450.46178076929
65	100985 888 246 1546 40 73 34 2334.8579254844 2446.106726442 81707.200315679 196399407.48219
66	101873 879 246 1546 40 73 34 1578.4448455973 1865.8235097304 57733.336110253 98264297.398332
67	102752 857 247 1546 41 73 33 4.0161385181755 13.982592359467 400.59679446321 5095.7868612921
68	103609 888 248 1546 42 73 32 -2.3446006342261 2.0804082644917 9.9646864019521 41.383911706686
69	104497 792 248 1546 42 73 32 0.973 8.5606523284014 99.42577412184 452.01215626665
70	105289 806 249 1546 43 73 31 2334.4301713972 2443.5612027394 74399.838151594 178598221.80902
71	106095 811 249 1546 43 73 31 1578.4619682319 1830.8175391611 52259.114370768 88259508.44859
72	106906 783 250 1546 44 73 30 3.9992962979057 13.997367390029 366.45691418982 4703.911583746
73	107689 807 251 1546 45 73 29 -3.8456400924426 2.1980071439291 9.966158773145 51.513474516551
74	108496 736 251 1546 45 73 29 0.973 8.7718288962126 95.66492767659 471.89635990878
75	109232 730 252 1546 46 73 28 2334.3497222776 2440.5156272979 67075.556327646 160716390.96266
76	109962 733 252 1546 46 73 28 1578.4567965213 1788.9348711055 46813.655983611 78372835.166488
77	110695 707 253 1546 47 73 27 4.1510441398274 13.985586905845 324.57447711159 4120.51818232
78	111402 719 254 1546 48 73 26 -4.4635479538827 2.0671690396545 9.7546906261633 53.048589768918
79	112121 651 254 1546 48 73 26 0.973 8.0918748703575 89.031793385012 448.26202350558
80	112772 651 255 1546 49 73 25 2334.7865815668 2437.0129204638 59753.405554311 142845269.06207
81	113423 654 255 1546 49 73 25 1578.4441374587 1745.9712520363 41461.240782269 68829619.798822
82	114077 628 256 1546 50 73 24 3.8447853377257 13.992536327657 281.01583655802 3507.2470615846
83	114705 632 257 1546 51 73 23 -4.4674361181588 2.078282451923 10.046454051383 50.817875583328
84	115337 572 257 1546 51 73 23 0.973 8.7472268623497 82.057496575722 417.5716484918
85	115909 575 258 1546 52 73 22 2333.8836589833 2414.8554173356 52173.552540802 123744930.45092
86	116484 573 258 1546 52 73 22 1578.4585047252 1698.0311695151 36066.501435074 59166092.513655
87	117057 545 260 1546 53 73 21 3.8698786158062 10.050048014556 196.75490209451 1895.8244997993
88	117602 567 338 1546 54 73 20 -0.10805653842399 2.0160195135884 6.1719008173939 10.742721372849
89	118169 519 338 1546 54 73 20 1.4214766063215 5.8316047347329 44.85235173172 129.19898942269
90	118688 499 340 1546 55 73 19 2334.635949342 2414.8298323693 45034.994773895 106757662.56458
91	119187 499 340 1546 55 73 19 1578.4678993914 1696.3351777662 31081.648563144 50878051.432524
92	119686 474 420 1546 56 73 18 4.0700236807532 12.951351441674 181.14140817489 1900.5854039142
93	120160 472 422 1546 57 73 17 -0.70156072131146 2.0183269427763 6.0463535364343 17.506116257287
94	120632 408 422 1546 57 73 17 0.973 7.5386032280172 44.05723606636 189.53911810727
95	121040 420 502 1546 58 73 16 2334.0024995889 2414.8593783923 37955.638222517 90051513.679691
96	121460 421 502 1546 58 73 16 1578.4570502462 1692.1642859075 26030.023461411 42371385.891925
97	121881 395 504 1546 59 73 15 3.8447639940612 13.031157599441 163.17649861932 1895.9261207601
98	122276 389 595 1546 60 73 14 -0.56917833923897 1.9814613342541 7.2995632560175 17.850635003368
99	122665 329 595 1546 60 73 14 0.973 7.2530068360154 42.613405753465 198.0827866169
100	122994 354 597 1546 61 73 13 2334.2278371524 2414.8844513154 30887.513178264 73398035.773611
101	123348 355 597 1546 61 73 13 1578.4478435991 1674.8490054691 21011.58251684 33973759.211757
102	123703 326 702 1546 62 73 12 4.018615917157 13.970749160051 137.93805077022 1723.9014215612
103	124029 321 704 1546 63 73 11 -0.048663526580203 2.1492465194734 9.8562514106427 19.669304912694
104	124350 301 704 1546 63 73 11 1.867603388115 8.1667304192483 44.363479137653 241.8482159222
105	124651 275 809 1546 64 73 10 2353.2254117181 2414.8420826617 23882.322067888 57040692.287251
106	124926 275 809 1546 64 73 10 1578.4634011481 1636.183709749 16014.610470342 25650688.857343
107	125201 248 811 1546 65 73 9 4.2842987557744 12.295276953945 89.466020449863 962.77162036081
108	125449 231 921 1546 66 73 8 -0.057183753198478 2.0492601770512 7.9246501955139 14.508826638325
109	125680 221 921 1546 66 73 8 1.7010311945519 7.3415326447534 31.482477042733 155.51970287171
110	125901 195 923 1546 67 73 7 2377.8896717046 2414.8461773879 16796.17080164 40302706.40669
111	126096 194 923 1546 67 73 7 1578.4618975855 1611.2022122648 11132.957255132 17707024.690733
112	126290 166 1039 1546 68 73 6 4.1832233416825 13.95514258502 55.232312543004 578.28236451615
113	126456 140 1128 1546 69 73 5 1.5773050603013 2.1458663539286 9.7719192433379 19.315960904521
114	126596 140 1128 1546 69 73 5 4.2325536946742 7.8311198804753 32.300629655034 217.08778205169
115	126736 112 1241 1546 70 73 4 2402.2695560248 2414.8737180224 9636.1682044036 23214025.831322
116	126848 111 1241 1546 70 73 4 1578.4517848091 1586.5087481523 6326.0745634381 10004843.008075
117	126959 84 1426 1546 71 73 3 4.0859593419879 7.8119547564685 17.902433198162 113.77595048022
118	127043 56 1544 1546 72 73 2 1.8074356567627 1.9185597577179 3.7259954144806 6.9476951972716
119	127099 56 1544 1546 72 73 2 4.1959838790125 4.9337141016577 9.1296979806702 41.947815549829
120	127155 28 1546 1546 73 73 1 2414.8769514603 2414.8769514603 2414.8769514603 5831630.690694
121	127183 28 1546 1546 73 73 1 1578.4505975069 1578.4505975069 1578.4505975069 2491506.28877
vector 122 RSUExampleScenario.node[24].veinsmobility speed ETV
vector 123 RSUExampleScenario.node[24].veinsmobility acceleration ETV
vector 124 RSUExampleScenario.node[24].veinsmobility co2emission ETV
vector 125 RSUExampleScenario.node[25].veinsmobility posx ETV
vector 126 RSUExampleScenario.node[25].veinsmobility posy ETV
vector 127 RSUExampleScenario.node[25].veinsmobility speed ETV
vector 128 RSUExampleScenario.node[25].veinsmobility acceleration ETV
vector 129 RSUExampleScenario.node[25].veinsmobility co2emission ETV
vector 130 RSUExampleScenario.node[26].veinsmobility posx ETV
vector 131 RSUExampleScenario.node[26].veinsmobility posy ETV
vector 132 RSUExampleScenario.node[26].veinsmobility speed ETV
vector 133 RSUExampleScenario.node[26].veinsmobility acceleration ETV
vector 134 RSUExampleScenario.node[26].veinsmobility co2emission ETV
vector 135 RSUExampleScenario.node[27].veinsmobility posx ETV
vector 136 RSUExampleScenario.node[27].veinsmobility posy ETV
vector 137 RSUExampleScenario.node[27].veinsmobility speed ETV
vector 138 RSUExampleScenario.node[27].veinsmobility acceleration ETV
vector 139 RSUExampleScenario.node[27].veinsmobility co2emission ETV
vector 140 RSUExampleScenario.node[28].veinsmobility posx ETV
vector 141 RSUExampleScenario.node[28].veinsmobility posy ETV
vector 142 RSUExampleScenario.node[28].veinsmobility speed ETV
vector 143 RSUExampleScenario.node[28].veinsmobility acceleration ETV
vector 144 RSUExampleScenario.node[28].veinsmobility co2emission ETV
vector 145 RSUExampleScenario.node[29].veinsmobility posx ETV
vector 146 RSUExampleScenario.node[29].veinsmobility posy ETV
vector 147 RSUExampleScenario.node[29].veinsmobility speed ETV
vector 148 RSUExampleScenario.node[29].veinsmobility acceleration ETV
vector 149 RSUExampleScenario.node[29].veinsmobility co2emission ETV
vector 150 RSUExampleScenario.node[30].veinsmobility posx ETV
vector 151 RSUExampleScenario.node[30].veinsmobility posy ETV
vector 152 RSUExampleScenario.node[30].veinsmobility speed ETV
vector 153 RSUExampleScenario.node[30].veinsmobility acceleration ETV
vector 154 RSUExampleScenario.node[30].veinsmobility co2emission ETV
vector 155 RSUExampleScenario.node[31].veinsmobility posx ETV
vector 156 RSUExampleScenario.node[31].veinsmobility posy ETV
vector 157 RSUExampleScenario.node[31].veinsmobility speed ETV
vector 158 RSUExampleScenario.node[31].veinsmobility acceleration ETV
vector 159 RSUExampleScenario.node[31].veinsmobility co2emission ETV
vector 160 RSUExampleScenario.node[32].veinsmobility posx ETV
vector 161 RSUExampleScenario.node[32].veinsmobility posy ETV
vector 162 RSUExampleScenario.node[32].veinsmobility speed ETV
vector 163 RSUExampleScenario.node[32].veinsmobility acceleration ETV
vector 164 RSUExampleScenario.node[32].veinsmobility co2emission ETV
vector 165 RSUExampleScenario.node[33].veinsmobility posx ETV
vector 166 RSUExampleScenario.node[33].veinsmobility posy ETV
vector 167 RSUExampleScenario.node[33].veinsmobility speed ETV
vector 168 RSUExampleScenario.node[33].veinsmobility acceleration ETV
vector 169 RSUExampleScenario.node[33].veinsmobility co2emission ETV
vector 170 RSUExampleScenario.node[34].veinsmobility posx ETV
vector 171 RSUExampleScenario.node[34].veinsmobility posy ETV
vector 172 RSUExampleScenario.node[34].veinsmobility speed ETV
vector 173 RSUExampleScenario.node[34].veinsmobility acceleration ETV
vector 174 RSUExampleScenario.node[34].veinsmobility co2emission ETV
vector 175 RSUExampleScenario.node[35].veinsmobility posx ETV
vector 176 RSUExampleScenario.node[35].veinsmobility posy ETV
vector 177 RSUExampleScenario.node[35].veinsmobility speed ETV
vector 178 RSUExampleScenario.node[35].veinsmobility acceleration ETV
vector 179 RSUExampleScenario.node[35].veinsmobility co2emission ETV
vector 180 RSUExampleScenario.node[36].veinsmobility posx ETV
vector 181 RSUExampleScenario.node[36].veinsmobility posy ETV
vector 182 RSUExampleScenario.node[36].veinsmobility speed ETV
vector 183 RSUExampleScenario.node[36].veinsmobility acceleration ETV
vector 184 RSUExampleScenario.node[36].veinsmobility co2emission ETV
vector 185 RSUExampleScenario.node[37].veinsmobility posx ETV
vector 186 RSUExampleScenario.node[37].veinsmobility posy ETV
vector 187 RSUExampleScenario.node[37].veinsmobility speed ETV
vector 188 RSUExampleScenario.node[37].veinsmobility acceleration ETV
vector 189 RSUExampleScenario.node[37].veinsmobility co2emission ETV
vector 190 RSUExampleScenario.node[38].veinsmobility posx ETV
vector 191 RSUExampleScenario.node[38].veinsmobility posy ETV
vector 192 RSUExampleScenario.node[38].veinsmobility speed ETV
vector 193 RSUExampleScenario.node[38].veinsmobility acceleration ETV
vector 194 RSUExampleScenario.node[38].veinsmobility co2emission ETV
vector 195 RSUExampleScenario.node[39].veinsmobility posx ETV
vector 196 RSUExampleScenario.node[39].veinsmobility posy ETV
vector 197 RSUExampleScenario.node[39].veinsmobility speed ETV
vector 198 RSUExampleScenario.node[39].veinsmobility acceleration ETV
vector 199 RSUExampleScenario.node[39].veinsmobility co2emission ETV
vector 200 RSUExampleScenario.node[40].veinsmobility posx ETV
vector 201 RSUExampleScenario.node[40].veinsmobility posy ETV
vector 202 RSUExampleScenario.node[40].veinsmobility speed ETV
vector 203 RSUExampleScenario.node[40].veinsmobility acceleration ETV
vector 204 RSUExampleScenario.node[40].veinsmobility co2emission ETV
vector 205 RSUExampleScenario.node[41].veinsmobility posx ETV
vector 206 RSUExampleScenario.node[41].veinsmobility posy ETV
vector 207 RSUExampleScenario.node[41].veinsmobility speed ETV
vector 208 RSUExampleScenario.node[41].veinsmobility acceleration ETV
vector 209 RSUExampleScenario.node[41].veinsmobility co2emission ETV
vector 210 RSUExampleScenario.node[42].veinsmobility posx ETV
vector 211 RSUExampleScenario.node[42].veinsmobility posy ETV
vector 212 RSUExampleScenario.node[42].veinsmobility speed ETV
vector 213 RSUExampleScenario.node[42].veinsmobility acceleration ETV
vector 214 RSUExampleScenario.node[42].veinsmobility co2emission ETV
vector 215 RSUExampleScenario.node[43].veinsmobility posx ETV
vector 216 RSUExampleScenario.node[43].veinsmobility posy ETV
vector 217 RSUExampleScenario.node[43].veinsmobility speed ETV
vector 218 RSUExampleScenario.node[43].veinsmobility acceleration ETV
vector 219 RSUExampleScenario.node[43].veinsmobility co2emission ETV
vector 220 RSUExampleScenario.node[44].veinsmobility posx ETV
vector 221 RSUExampleScenario.node[44].veinsmobility posy ETV
vector 222 RSUExampleScenario.node[44].veinsmobility speed ETV
vector 223 RSUExampleScenario.node[44].veinsmobility acceleration ETV
vector 224 RSUExampleScenario.node[44].veinsmobility co2emission ETV
vector 225 RSUExampleScenario.node[45].veinsmobility posx ETV
vector 226 RSUExampleScenario.node[45].veinsmobility posy ETV
vector 227 RSUExampleScenario.node[45].veinsmobility speed ETV
vector 228 RSUExampleScenario.node[45].veinsmobility acceleration ETV
vector 229 RSUExampleScenario.node[45].veinsmobility co2emission ETV
vector 230 RSUExampleScenario.node[46].veinsmobility posx ETV
vector 231 RSUExampleScenario.node[46].veinsmobility posy ETV
vector 232 RSUExampleScenario.node[46].veinsmobility speed ETV
vector 233 RSUExampleScenario.node[46].veinsmobility acceleration ETV
vector 234 RSUExampleScenario.node[46].veinsmobility co2emission ETV
vector 235 RSUExampleScenario.node[47].veinsmobility posx ETV
vector 236 RSUExampleScenario.node[47].veinsmobility posy ETV
vector 237 RSUExampleScenario.node[47].veinsmobility speed ETV
vector 238 RSUExampleScenario.node[47].veinsmobility acceleration ETV
vector 239 RSUExampleScenario.node[47].veinsmobility co2emission ETV
vector 240 RSUExampleScenario.node[48].veinsmobility posx ETV
vector 241 RSUExampleScenario.node[48].veinsmobility posy ETV
vector 242 RSUExampleScenario.node[48].veinsmobility speed ETV
vector 243 RSUExampleScenario.node[48].veinsmobility acceleration ETV
vector 244 RSUExampleScenario.node[48].veinsmobility co2emission ETV
vector 245 RSUExampleScenario.node[49].veinsmobility posx ETV
vector 246 RSUExampleScenario.node[49].veinsmobility posy ETV
vector 247 RSUExampleScenario.node[49].veinsmobility speed ETV
vector 248 RSUExampleScenario.node[49].veinsmobility acceleration ETV
vector 249 RSUExampleScenario.node[49].veinsmobility co2emission ETV
vector 250 RSUExampleScenario.node[50].veinsmobility posx ETV
vector 251 RSUExampleScenario.node[50].veinsmobility posy ETV
vector 252 RSUExampleScenario.node[50].veinsmobility speed ETV
vector 253 RSUExampleScenario.node[50].veinsmobility acceleration ETV
vector 254 RSUExampleScenario.node[50].veinsmobility co2emission ETV
vector 255 RSUExampleScenario.node[51].veinsmobility posx ETV
vector 256 RSUExampleScenario.node[51].veinsmobility posy ETV
vector 257 RSUExampleScenario.node[51].veinsmobility speed ETV
vector 258 RSUExampleScenario.node[51].veinsmobility acceleration ETV
vector 259 RSUExampleScenario.node[51].veinsmobility co2emission ETV
vector 260 RSUExampleScenario.node[52].veinsmobility posx ETV
vector 261 RSUExampleScenario.node[52].veinsmobility posy ETV
vector 262 RSUExampleScenario.node[52].veinsmobility speed ETV
vector 263 RSUExampleScenario.node[52].veinsmobility acceleration ETV
vector 264 RSUExampleScenario.node[52].veinsmobility co2emission ETV
vector 265 RSUExampleScenario.node[53].veinsmobility posx ETV
vector 266 RSUExampleScenario.node[53].veinsmobility posy ETV
vector 267 RSUExampleScenario.node[53].veinsmobility speed ETV
vector 268 RSUExampleScenario.node[53].veinsmobility acceleration ETV
vector 269 RSUExampleScenario.node[53].veinsmobility co2emission ETV
vector 270 RSUExampleScenario.node[54].veinsmobility posx ETV
vector 271 RSUExampleScenario.node[54].veinsmobility posy ETV
0	136991 2390 1668 6405 74 163 90 1184.2476828147 2138.2558950796 152562.23868805 265276607.38487
1	139381 2395 1668 6405 74 163 90 1348.0170385102 2074.2936624894 149090.10619409 251834148.90771
2	141776 2396 1668 6405 74 163 90 8.4946715655791 13.998359918438 1243.6244366274 17226.96877651
3	144172 2614 1668 6405 74 163 90 -0.11731649283087 2.0734577935305 7.0683975716393 13.127362322198
4	146786 2396 1668 6405 74 163 90 1.633853726441 8.1607584221603 201.29663360923 540.6039566532
5	149182 2393 1668 6405 74 163 90 1229.0588408221 2165.2424954871 155653.01958396 275641450.76183
6	151575 2398 1668 6405 74 163 90 1352.7427809807 2090.5944611588 151469.02934642 260001693.29169
7	153973 2396 1668 6405 74 163 90 7.5687227125094 13.999323605334 1233.715950871 17008.894882945
8	156369 2612 1668 6405 74 163 90 -4.4892687861132 2.0988350649318 -0.0058183024800371 35.716593223208
9	158981 2376 1668 6405 74 163 90 0.973 8.7525284671264 197.09982986915 533.26533068609
10	161357 2482 1668 6405 74 163 90 1267.9435116519 2201.1356404887 158321.33353892 284800433.8923
11	163839 2485 1668 6405 74 163 90 1357.1918182261 2106.008526748 153574.56145715 267280827.95855
12	166324 2489 1668 6405 74 163 90 7.2714327337119 13.997721134285 1233.3873610066 16993.221330089
13	168813 2694 1668 6405 74 163 90 -4.4962264973393 2.0878022219194 -0.00058260901598395 34.472308639591
14	171507 2455 1668 6405 74 163 90 0.973 8.2177466262902 197.06293079527 521.22612354313
15	173962 2485 1668 6405 74 163 90 1308.8159666696 2240.2066991659 161128.23280976 294642210.47043
16	176447 2488 1668 6405 74 163 90 1363.983750687 2114.4884428075 155813.32560854 275050664.01543
17	178935 2487 1668 6405 74 163 90 6.7222580367331 13.997565111939 1232.1427222758 16971.389365847
18	181422 2698 1668 6405 74 163 90 -4.5 2.1248851186968 -0.01548412248958 37.479759747503
19	184120 2452 1668 6405 74 163 90 0.973 7.7737177996377 198.25734061912 534.05235166937
20	186572 2484 1668 6405 74 163 90 1371.6828650703 2306.4009303466 165505.00442763 310472939.113
21	189056 2488 1668 6405 74 163 90 1376.3855420947 2117.4948335225 159261.83822368 287070282.91782
22	191544 2490 1668 6405 74 163 90 7.2008205324427 13.999806407762 1234.6848088364 17029.125687114
23	194034 2712 1668 6405 74 163 90 -4.4202670209802 2.0694881742587 -0.028487128959968 37.623882460577
24	196746 2468 1668 6405 74 163 90 0.973 7.9981972462927 198.74783699951 526.49744117938
25	199214 2479 1668 6405 74 163 90 1403.5835317496 2333.7898680173 167709.59834471 318589566.05631
26	201693 2485 1668 6405 74 163 90 1386.8657042934 2118.4199183583 161028.36178882 293238495.09422
27	204178 2483 1668 6405 74 163 90 6.6251523498349 13.997392567724 1228.0221887374 16875.360156268
28	206661 2714 1668 6405 74 163 90 -4.1476450008758 2.0798130694125 0.0020791446650392 39.489874141258
29	209375 2450 1668 6405 74 163 90 0.973 7.8165561438188 199.68241391196 540.29061606652
30	211825 2489 1668 6405 74 163 90 1439.4194964416 2378.0801423873 170476.18245722 329095834.20247
31	214314 2488 1668 6405 74 163 90 1403.7609172771 2119.9158603204 163109.57142014 300557275.35032
32	216802 2485 1668 6405 74 163 90 6.3360144175804 13.999156328384 1231.9865131579 16966.803163543
33	219287 2709 1668 6405 74 163 90 -4.4802841587956 2.4234314252366 0.019691940743943 39.462576769812
34	221996 2441 1668 6405 74 163 90 0.973 7.8926133649108 198.10275917054 535.88215007174
35	224437 2482 1668 6405 74 163 90 1536.0827487882 2440.7791965613 178587.40012557 360798190.50512
36	226919 2488 1668 6405 74 163 90 1474.7708467022 2120.6614999305 168800.51806013 320634133.34612
37	229407 2487 1668 6405 74 163 90 7.4311977129773 13.999243474267 1228.7123120307 16877.885381257
38	231894 2699 1668 6405 74 163 90 -4.4823587748475 1.9231716386927 1.2214917097203 34.746771688204
39	234593 2454 1668 6405 74 163 90 0.973 7.9715287769973 200.81198847127 542.50997495452
40	237047 2484 1668 6405 74 163 90 1556.3716172859 2442.2117046937 180170.23279785 367005625.09765
41	239531 2487 1668 6405 74 163 90 1492.3208270725 2120.8279265687 169905.67023598 324537815.24473
42	242018 2483 1668 6405 74 163 90 7.522841975327 13.996565480784 1219.7506444554 16663.482922294
43	244501 2694 1668 6405 74 163 90 -3.3070113040032 2.0535479463381 1.3100258948714 27.144715869102
44	247195 2440 1668 6405 74 163 90 0.973 8.3114076733424 199.22600242812 537.02679128728
45	249635 2485 1668 6405 74 163 90 1575.0341810823 2443.651387717 181684.25681552 372985982.03648
46	252120 2485 1668 6405 74 163 90 1510.5721512819 2120.7919995487 170918.5223284 328121257.98763
47	254605 2488 1668 6405 74 163 90 7.6971048517949 13.999235930033 1212.5147773139 16492.722799287
48	257093 2701 1668 6405 74 163 90 -2.5256712424416 2.1497999797249 1.1883908108358 24.633429794719
49	259794 2431 1668 6405 74 163 90 0.973 8.3259780451779 197.3904556446 540.1131968514
50	262225 2486 1668 6405 74 163 90 1592.8345174269 2445.1418019773 183139.59004151 378774020.61497
51	264711 2486 1668 6405 74 163 90 1528.5407681176 2120.7039867258 171838.01594033 331376784.1669
52	267197 2486 1668 6405 74 163 90 7.3366089927091 13.999328219597 1205.4370211148 16321.170557779
53	269683 2688 1668 6405 74 163 90 -1.8145632250576 1.9305581291299 0.87942356448967 21.273062939976
54	272371 2434 1668 6405 74 163 90 0.973 7.5774642870421 196.53194409216 521.43859688258
55	274805 2482 1668 6405 74 163 90 1611.329296133 2448.0055655477 184812.63686757 385582786.93389
56	277287 2479 1668 6405 74 163 90 1547.2103924202 2120.7777846977 172603.55096603 334026479.96562
57	279766 2483 1668 6405 74 163 90 6.9009626829425 13.999905188144 1214.8024378643 16558.969031849
58	282249 2703 1668 6405 74 163 90 -1.971901039316 2.0403359166486 -0.0020181350340138 21.71594258131
59	284952 2412 1668 6405 74 163 90 0.973 8.0809799824166 192.82019696357 508.33164469904
60	287364 2482 1668 6405 74 163 90 1634.5322083841 2450.6306422632 187066.4678249 394913630.40327
61	289846 2484 1668 6405 74 163 90 1570.1227769153 2120.9520459101 173320.54463723 336433538.54872
62	292330 2483 1668 6405 74 163 90 7.7589410174757 13.999056914009 1230.2250217179 16912.658140316
63	294813 2685 1668 6405 74 163 90 -2.1561265404488 2.171357678452 -0.082600326910615 22.517438376576
64	297498 2428 1668 6405 74 163 90 0.973 8.7089421533914 194.55520193607 526.74202054923
65	299926 2482 1668 6405 74 163 90 1658.9490594122 2450.1499671022 189044.42057225 403006344.66458
66	302408 2486 1668 6405 74 163 90 1594.0515967384 2120.7260294929 174077.59770188 339053719.66558
67	304894 2485 1668 6405 74 163 90 6.7254223474334 13.999926172604 1230.3089917914 16922.440256013
68	307379 2712 1668 6405 74 163 90 -3.7634138144476 2.2943333165627 -0.050710127472412 33.756689183246
69	310091 2445 1668 6405 74 163 90 0.973 8.3929007941049 197.48764296592 531.65813059699
70	312536 2484 1668 6405 74 163 90 1683.5975049321 2450.6330954138 190986.5692133 410998080.36942
71	315020 2480 1668 6405 74 163 90 1618.2073820652 2120.9558397355 174696.06022369 341186509.69902
72	317500 2480 1668 6405 74 163 90 7.9598095710251 13.999656618503 1231.0082543309 16935.377754433
73	319980 2697 1668 6405 74 163 90 -2.995629766743 2.110398761523 -0.023527636840008 28.950495941558
74	322677 2451 1668 6405 74 163 90 0.973 8.0230988638379 196.12268301765 523.99240964509
75	325128 2487 1668 6405 74 163 90 1713.1782537838 2450.6169209509 193222.20262472 420248100.37811
76	327615 2483 1668 6405 74 163 90 1647.1968864324 2120.934805207 175247.36051627 343080519.13745
77	330098 2485 1668 6405 74 163 90 7.498422242219 13.997592851426 1232.1913391216 16969.973671581
78	332583 2711 1668 6405 74 163 90 -4.4635536425416 1.9924787498568 -0.0081495568691743 34.16865564075
79	335294 2454 1668 6405 74 163 90 0.973 8.4312780203507 196.60434166709 524.07767624109
80	337748 2487 1668 6405 74 163 90 1743.1791543632 2450.5254289502 195401.4773948 429328326.70496
81	340235 2482 1668 6405 74 163 90 1676.5981447548 2120.6608228572 175576.39139041 344198828.88977
82	342717 2485 1668 6405 74 163 90 7.6656385186951 13.994805302613 1233.0926387525 16989.960375187
83	345202 2688 1668 6405 74 163 90 -4.5 1.9304535800335 0.099970164548141 32.934001621844
84	347890 2450 1668 6405 74 163 90 0.973 8.3619442832883 196.56755167112 517.68165779885
85	350340 2486 1668 6405 74 163 90 1861.9699834486 2450.3597394241 202999.12253572 461457845.07947
86	352826 2478 1668 6405 74 163 90 1698.9733768804 2120.5688971151 176149.21818573 346334864.67214
87	355304 2486 1668 6405 74 163 90 7.2711752960157 13.995643050603 1150.0743824617 14911.618605764
88	357790 2675 1668 6405 74 163 90 -4.5 2.1310822762968 3.8982612482762 55.035160531451
89	360465 2458 1668 6405 74 163 90 0.973 8.5377272186901 208.00312924169 653.81429327706
90	362923 2485 1668 6405 74 163 90 1882.1083035454 2450.4524190207 203900.52980104 465237837.04984
91	365408 2483 1668 6405 74 163 90 1697.5261189789 2120.7316811346 176163.09588218 346455604.50946
92	367891 2485 1668 6405 74 163 90 6.4519680539834 13.986246451233 1135.8146877613 14603.935551654
93	370376 2686 1668 6405 74 163 90 -3.293089319321 2.3297191780875 3.8159196660249 46.840385196489
94	373062 2421 1668 6405 74 163 90 0.973 8.696925829343 206.00069123431 657.86509840427
95	375483 2480 1668 6405 74 163 90 1900.1346410305 2450.4624753713 204678.20679543 468507101.38149
96	377963 2488 1668 6405 74 163 90 1695.2064716825 2120.8961891662 176077.2093842 346202923.58511
97	380451 2482 1668 6405 74 163 90 7.0086972943185 13.994085030206 1128.618283775 14439.489177005
98	382933 2672 1668 6405 74 163 90 -2.5445133379498 2.222100084126 2.73829986366 44.175873913247
99	385605 2356 1668 6405 74 163 90 0.973 8.3204552480567 203.09140587598 667.14244758949
100	387961 2579 1668 6405 74 163 90 1917.1914978394 2450.3554975685 205360.00959044 471365441.33871
101	390540 2570 1668 6405 74 163 90 1683.5117462864 2120.5997553328 175891.75412579 345589772.94569
102	393110 2579 1668 6405 74 163 90 6.4930630988118 13.998704754978 1130.0676321473 14486.392266654
103	395689 2761 1668 6405 74 163 90 -2.198287774594 2.3276957343216 0.044217595460651 51.875706110265
104	398450 2426 1668 6405 74 163 90 0.973 8.0770804009282 203.73018752973 670.98633135269
105	400876 2570 1668 6405 74 163 90 1935.0477607877 2450.1610031507 205822.55895741 473198704.507
106	403446 2578 1668 6405 74 163 90 1644.8884917665 2120.7689092075 175315.00952333 343594626.51184
107	406024 2574 1668 6405 74 163 90 6.9384423191984 13.999963147973 1152.4234842259 15017.213745263
108	408598 2750 1668 6405 74 163 90 -2.965684290064 2.279591250075 1.6668863344666 51.686289674169
109	411348 2447 1668 6405 74 163 90 0.973 8.0062312204286 207.22217716026 672.0180524368
110	413795 2571 1668 6405 74 163 90 1952.5997283135 2450.1550019225 206480.23592231 475994967.21256
111	416366 2579 1668 6405 74 163 90 1621.0846022842 2120.9453101354 174836.44849786 341938526.98128
112	418945 2578 1668 6405 74 163 90 7.176029561783 13.994017626585 1163.1193773367 15325.830254241
113	421523 2757 1668 6405 74 163 90 -2.4922948446457 2.2485749843647 0.011207613400224 53.259407505087
114	424280 2427 1668 6405 74 163 90 0.973 9.3845509327609 205.96602283313 688.02320552679
115	426707 2569 1668 6405 74 163 90 2023.8940999937 2450.5820902542 209873.84640467 490947578.80476
116	429276 2573 1668 6405 74 163 90 1592.8324099882 2120.7082483275 172372.70369389 333007938.40744
117	431849 2575 1668 6405 74 163 90 7.1822176853948 13.9954915611 1101.3653842615 13736.112900255
118	434424 2769 1668 6405 74 163 90 -4.4969576200014 2.0294341745344 6.1052509969743 53.542122030141
119	437193 2528 1668 6405 74 163 90 0.973 7.5416277572968 208.26479313831 648.16791989343
120	439721 2573 1668 6405 74 163 90 2043.8425488929 2450.1930519535 210524.23537366 493826770.73387
121	442294 2579 1668 6405 74 163 90 1579.5393416099 2120.8731574817 171786.81302501 330999271.83116
122	444873 2573 1668 6405 74 163 90 4.0735588402093 13.990983375695 1091.5910143229 13626.138750436
123	447446 2709 1670 6405 75 163 89 -3.3641743177556 2.2564944986859 9.9114544113119 62.937777055735
124	450155 2438 1670 6405 75 163 89 0.973 8.3392083846763 215.05429110153 780.84290021029
125	452593 2517 1789 6405 76 163 88 2061.3618962996 2450.61204914 206325.39203233 484983975.65771
126	455110 2515 1789 6405 76 163 88 1578.4519604994 2120.5746393418 167948.73917829 323661744.81442
127	457625 2491 1791 6405 77 163 87 4.0635240824116 13.995084378871 1066.8331919707 13478.419426631
128	460116 2631 1909 6405 78 163 86 -2.4388622262347 2.1959245370305 9.8104572273544 63.359132721451
129	462747 2319 1909 6405 78 163 86 0.973 8.7205365289006 213.50993582043 830.98028975627
130	465066 2439 1911 6405 79 163 85 2077.9691378009 2450.245049579 199624.01656432 469914003.09573
131	467505 2435 1911 6405 79 163 85 1578.4618988531 2120.7444728371 162349.58949997 313180912.96886
132	469940 2406 2037 6405 80 163 84 4.0267229073465 13.998625195462 1040.9252088775 13282.752503558
133	472346 2521 2039 6405 81 163 83 -1.800034765683 2.1514025536249 9.8802044692618 57.515284477684
134	474867 2261 2039 6405 81 163 83 0.973 8.2365585891526 207.45763982238 782.74663729211
135	477128 2351 2159 6405 82 163 82 2095.473287893 2450.1729110724 192879.9987634 454654728.76755
136	479479 2352 2159 6405 82 163 82 1578.4479903299 2120.9215816753 156583.14543021 302060520.30204
137	481831 2324 2162 6405 83 163 81 3.8169569386458 13.998507969014 1014.3321972742 13133.69387209
138	484155 2440 2492 6405 84 163 80 -2.3598040740222 2.1917019801144 10.055030142315 64.030477249461
139	486595 2155 2492 6405 84 163 80 0.973 7.8489798890004 206.83005002954 792.787996832
140	488750 2269 2495 6405 85 163 79 2114.3636729643 2450.3908839365 186320.64575269 440259696.16099
141	491019 2267 2495 6405 85 163 79 1578.4518036256 2120.6139469184 150561.01347564 289930067.83102
142	493286 2244 2622 6405 86 163 78 4.0343364698305 13.999620908881 987.43220900113 12920.048745577
143	495530 2366 2624 6405 87 163 77 -3.6888268362507 2.2684688731562 9.8887102086558 76.085884206131
144	497896 2115 2624 6405 87 163 77 0.973 8.0491589463412 204.08089862547 803.78303520086
145	500011 2179 2748 6405 88 163 76 2131.6904150392 2450.5693259261 179867.81425275 426364940.39605
146	502190 2187 2748 6405 88 163 76 1578.4481442608 2120.7721794043 144423.55887222 277356156.57771
147	504377 2152 2750 6405 89 163 75 4.0013211675714 13.999199340187 961.38098267118 12710.942336083
148	506529 2275 2879 6405 90 163 74 -4.4090028646632 2.1844902744796 6.3657748152902 73.829510619527
149	508804 2049 2879 6405 90 163 74 0.973 8.6397759745869 188.83609226362 702.1054006308
150	510853 2101 2881 6405 91 163 73 2147.2182794536 2450.5909072174 173435.25001565 412570922.35873
151	512954 2101 2881 6405 91 163 73 1578.4565926548 2120.8488398083 138215.28213605 264495806.28474
152	515055 2072 3015 6405 92 163 72 4.0929231651139 13.996154001469 939.11576637914 12561.494793337
153	517127 2203 3017 6405 93 163 71 -4.4791784844679 2.1234678969695 4.5967331902841 63.724956857085
154	519330 1970 3017 6405 93 163 71 0.973 9.1179268217973 176.55537255611 637.00741674869
155	521300 2016 3286 6405 94 163 70 2174.9309625268 2450.6484816062 166947.83352976 398536485.67033
156	523316 2015 3286 6405 94 163 70 1578.4661713783 2120.951131341 131990.93264432 251570165.32166
157	525331 1986 3288 6405 95 163 69 4.2052558286512 13.998518423606 909.68651966235 12273.893845455
158	527317 2109 3289 6405 96 163 68 -4.4488477394171 2.1511947196047 9.7653878685436 54.145024138835
159	529426 1919 3289 6405 96 163 68 0.973 8.7639896884138 174.89760651542 635.55673695527
160	531345 1934 3290 6405 97 163 67 2245.483812718 2450.3917266983 160694.32408804 385597311.96164
161	533279 1933 3290 6405 97 163 67 1578.4490826223 2120.6129671792 124650.80569839 234420714.73113
162	535212 1902 3292 6405 98 163 66 3.9195603011693 13.994503580092 836.97893812524 10901.987196004
163	537114 2024 3545 6405 99 163 65 -2.8955604249949 2.1175358718634 10.024537373138 36.593266389329
164	539138 1856 3545 6405 99 163 65 0.973 8.4839578196736 158.33687797275 532.71906552479
165	540994 1851 3547 6405 100 163 64 2274.990390165 2450.2676099896 153877.23673566 370106545.68214
166	542845 1853 3547 6405 100 163 64 1578.4549668636 2120.6686830437 118746.31465136 222643994.3924
167	544698 1820 3548 6405 101 163 63 3.9747482432421 13.999452173801 807.55059908215 10654.406732129
168	546518 1919 3549 6405 102 163 62 -1.8599681704293 2.0400745077524 9.9585737478993 37.05398880716
169	548437 1725 3549 6405 102 163 62 0.973 8.7362375013429 154.44652737716 564.07595829844
170	550162 1759 3550 6405 103 163 61 2306.3744124861 2450.2577806491 146964.10443312 354171793.52165
171	551921 1758 3550 6405 103 163 61 1578.4700050903 2120.7865838585 112747.83791014 210525166.96394
172	553679 1737 3551 6405 104 163 60 4.2292426157767 13.998561192479 776.59615224108 10342.53163053
173	555416 1833 3552 6405 105 163 59 -2.3199954668997 2.2262654979038 9.7055126080987 44.910934249101
174	557249 1656 3552 6405 105 163 59 0.973 7.6878605237884 154.26869859871 582.34879084357
175	558905 1676 3553 6405 106 163 58 2334.7695703001 2450.2801452257 139986.9311215 337942750.90512
176	560581 1674 3553 6405 106 163 58 1578.454787395 2120.6643102393 106465.94361897 197362340.67268
177	562255 1650 3554 6405 107 163 57 3.828069966125 13.995784487957 737.40229702428 9831.3217751715
178	563905 1742 3555 6405 108 163 56 -3.3327581210373 2.0073283973546 10.066680096689 45.290000431695
179	565647 1577 3555 6405 108 163 56 0.973 7.917155437987 148.7765053883 549.50718648447
180	567224 1583 3556 6405 109 163 55 2334.6344563016 2450.57502514 132898.70283747 321193651.31518
181	568807 1593 3556 6405 109 163 55 1578.4516972676 2120.8118573986 100237.75556027 184380576.05632
182	570400 1558 3557 6405 110 163 54 3.9549282409494 13.999050881448 700.82913142605 9368.1474700426
183	571958 1647 3558 6405 111 163 53 -4.4691865845785 2.1450316884601 10.02317846693 52.38399766087
184	573605 1512 3558 6405 111 163 53 0.973 8.977512736819 143.97069396333 556.68663977586
185	575117 1506 3559 6405 112 163 52 2333.9493048734 2450.2792068355 125607.46378876 303477571.09052
186	576623 1505 3559 6405 112 163 52 1578.451437911 2099.7658619061 93177.672599212 168248179.56941
187	578128 1475 3561 6405 113 163 51 4.0468560271259 13.997230974345 635.76715949215 8179.0990050357
188	579603 1544 3840 6405 114 163 50 -3.08 2.0959686288238 9.9301391779198 45.142672552037
189	581147 1424 3840 6405 114 163 50 0.973 8.1136061922364 132.43910405085 495.0525291783
190	582571 1419 3842 6405 115 163 49 2334.9436089419 2450.5945628978 118355.68191324 285943998.39741
191	583990 1418 3842 6405 115 163 49 1578.4623623062 2068.1624459606 87226.596114858 156332347.45086
192	585408 1388 3843 6405 116 163 48 4.2921992871535 13.999734012587 604.36842561079 7860.121107498
193	586796 1455 3844 6405 117 163 47 -3.4962148275985 2.0968393029622 9.6305492797823 49.821308864771
194	588251 1340 3844 6405 117 163 47 0.973 8.1912732447517 129.48453085253 499.62092017211
195	589591 1332 3845 6405 118 163 46 2334.6668089847 2450.3876093669 110911.33353313 267486542.05089
196	590923 1329 3845 6405 118 163 46 1578.463362135 2008.0224611545 80555.47822363 141809895.98279
197	592252 1298 3846 6405 119 163 45 4.099163855175 13.98453057304 543.73861071346 6805.4296633131
198	593550 1353 3847 6405 120 163 44 -2.9252093394197 2.0846138097718 9.8040504470533 35.81357997595
199	594903 1252 3847 6405 120 163 44 0.973 8.4212677898141 115.26701527823 440.55041546483
200	596155 1243 3848 6405 121 163 43 2333.9824690933 2450.3021220177 103635.72699154 249837305.45625
201	597398 1243 3848 6405 121 163 43 1578.45727483 1974.5729265735 74765.59962846 130578218.68935
202	598641 1215 3849 6405 122 163 42 3.9084870939956 13.999386982587 509.95979241226 6428.1627011505
203	599856 1264 3850 6405 123 163 41 -3.759724677813 2.3720240620477 9.9749276924717 46.742532475101
204	601120 1158 3850 6405 123 163 41 0.973 7.9863623358215 113.4944198635 452.82565812583
205	602278 1158 3851 6405 124 163 40 2334.5169715756 2450.335570144 96398.233512502 232369860.7585
206	603436 1159 3851 6405 124 163 40 1578.4581599468 1946.3899117177 69182.400072768 120116142.46307
207	604595 1126 3852 6405 125 163 39 4.076561782019 13.994044037792 481.56747711144 6212.9514679238
208	605721 1168 3853 6405 126 163 38 -3.1049815161731 2.2906016429001 9.8677445774746 52.063300483904
209	606889 1069 3853 6405 126 163 38 0.973 8.2851992498627 113.75098937733 500.22370362617
210	607958 1071 3854 6405 127 163 37 2333.9088620376 2448.4342101089 88976.90467251 214021326.75423
211	609029 1069 3854 6405 127 163 37 1578.4481271179 1897.8309998419 63243.888200507 108413266.49327
212	610098 1039 3856 6405 128 163 36 3.9824005470828 13.991954880175 433.64215476139 5435.0721545989
213	611137 1078 4176 6405 129 163 35 -4.4680611133249 2.145434306066 9.9276862816598 48.846248958327
214	612215 992 4176 6405 129 163 35 0.973 8.5557658696671 101.16895712728 433.23179067532
215	613207 980 4178 6405 130 163 34 2333.8669623059 2445.5595697939 81648.605814857 196118456.35291
216	614187 984 4178 6405 130 163 34 1578.4523998667 1858.2990268506 57601.539334665 97803882.414141
217	615171 954 4179 6405 131 163 33 3.8414571175372 13.977932162164 393.65141316511 4912.4350529349
218	616125 984 4180 6405 132 163 32 -4.422392609326 2.0782104821037 10.042216615465 47.489057774964
219	617109 904 4180 6405 132 163 32 0.973 7.7800969259788 95.743716230327 422.46222628001
220	618013 896 4181 6405 133 163 31 2333.9988551341 2441.842117514 74264.363020236 177948295.83086
221	618909 897 4181 6405 133 163 31 1578.4481708985 1807.1767273545 51983.153388126 87298046.073411
222	619806 868 4182 6405 134 163 30 4.0076643208797 13.967627272906 341.90707461669 4078.5255703383
223	620674 888 4183 6405 135 163 29 -3.7568389123376 2.2228974810801 9.9170279615921 49.454755021467
224	621562 820 4183 6405 135 163 29 0.973 8.0832878510019 90.109099857367 413.82188283715
225	622382 811 4184 6405 136 163 28 2334.0858184353 2439.7755151092 67041.182880301 160550620.85663
226	623193 811 4184 6405 136 163 28 1578.4565915735 1778.7568690432 46757.95527869 78175983.174311
227	624004 782 4185 6405 137 163 27 4.2020141742253 13.981579080205 312.56765211727 3836.0893162585
228	624786 788 4186 6405 138 163 26 -3.1742246280805 2.1547421413963 9.6846684946455 52.203781853184
229	625574 700 4186 6405 138 163 26 0.973 7.8605968938812 87.4881701515 452.3123550129
230	626274 723 4187 6405 139 163 25 2334.5629488912 2432.8465612544 59590.321353449 142063960.32278
231	626997 722 4187 6405 139 163 25 1578.4482381949 1718.5544899497 41310.941646803 68319127.931836
232	627719 695 4188 6405 140 163 24 3.9728593152307 11.810985352129 252.93630634849 2774.4746416169
233	628414 694 4189 6405 141 163 23 -3.5574534705837 1.988412756992 7.8381260368979 35.271627359439
234	629108 643 4189 6405 141 163 23 0.973 7.4113795116961 65.889507780526 282.15617954069
235	629751 636 4190 6405 142 163 22 2334.6182469977 2414.8344336114 52196.155328403 123852321.82951
236	630387 638 4190 6405 142 163 22 1578.4662098391 1698.6008493006 36094.287487534 59258438.049717
237	631025 608 4192 6405 143 163 21 3.8298766437329 10.394566427449 202.67723801293 2016.2561876408
238	631633 617 4330 6405 144 163 20 -0.10028323023813 2.0558474626578 6.4644065534785 11.99253648774
239	632250 577 4330 6405 144 163 20 1.458578231705 6.134205461555 46.115646176262 140.57664796938
240	632827 550 4332 6405 145 163 19 2334.3162769399 2414.8609813555 45058.836464706 106870417.85837
241	633377 548 4332 6405 145 163 19 1578.4564616466 1696.9839326162 31091.71797328 50912350.402838
242	633925 521 4693 6405 146 163 18 4.0897017584328 11.942655732986 186.71578090973 2019.3829478555
243	634446 525 4695 6405 147 163 17 -0.28393715794413 2.0754289889452 6.3915616900697 15.272054368913
244	634971 462 4695 6405 147 163 17 0.973 6.9914548001988 42.515213249852 169.33925844106
245	635433 462 4829 6405 148 163 16 2333.9156580711 2414.8492548425 37949.111607032 90020370.059764
246	635895 463 4829 6405 148 163 16 1578.4607675606 1693.3562409077 26038.87138398 42400005.302242
247	636358 430 4831 6405 149 163 15 4.0822673356419 12.553672257 165.37967462818 1927.06150381
248	636788 431 4973 6405 150 163 14 -0.18131240075179 2.0776538992859 8.2759177979611 16.223566769253
249	637219 404 4973 6405 150 163 14 1.3405079812676 7.727738630756 43.797935039417 191.08422964176
250	637623 377 4975 6405 151 163 13 2334.6030804353 2414.8762668803 30890.743556301 73413273.044302
251	638000 377 4975 6405 151 163 13 1578.4508488812 1670.1031846898 20993.410748351 33913585.581119
252	638377 347 5134 6405 152 163 12 4.1418937353608 12.880799538702 130.93636790152 1533.1147851061
253	638724 334 5136 6405 153 163 11 -0.04004145122366 2.1506399131543 8.6424148852201 17.153315902913
254	639058 318 5136 6405 153 163 11 1.7999792454937 8.0216906100427 39.734114517968 196.64812502658
255	639376 290 5301 6405 154 163 10 2349.8976010608 2414.8455331938 23879.319698471 57026801.994981
256	639666 290 5301 6405 154 163 10 1578.4621341303 1639.5543234879 16017.818239862 25661411.954325
257	639956 260 5303 6405 155 163 9 3.9558952104144 13.970314975511 95.18431720708 1126.7408037032
258	640216 238 5476 6405 156 163 8 -0.019482761060992 2.2390187778906 10.014419765097 19.892781055504
259	640454 232 5476 6405 156 163 8 1.9619318126381 8.5538133390101 38.616275924478 236.31868964559
260	640686 203 5478 6405 157 163 7 2380.2727323152 2414.8561439321 16802.673471922 40333776.964724
261	640889 203 5478 6405 157 163 7 1578.4582379228 1608.7885001693 11126.458145076 17686224.652564
262	641092 172 5657 6405 158 163 6 3.894362128734 13.137388215174 51.552132099321 503.73722889251
263	641264 145 6045 6405 159 163 5 1.6184696850001 1.9579638366075 9.2430260864396 17.179274263704
264	641409 145 6045 6405 159 163 5 4.1432624595407 7.2422877359005 29.379181434681 180.28291756699
265	641554 116 6221 6405 160 163 4 2402.2334207009 2414.8906439304 9636.3557389494 23214930.075475
266	641670 116 6221 6405 160 163 4 1578.4455697034 1586.5453482578 6325.9473183472 10004441.054549
267	641786 87 6223 6405 161 163 3 4.0435997821582 8.0773185104765 18.145051182002 117.88395058672
268	641873 58 6403 6405 162 163 2 1.9805331072095 2.0531856211089 4.0337187283183 8.138082583481
269	641931 56 6403 6405 162 163 2 4.296169456004 5.545132954727 9.8413024107311 49.205571480302
270	641987 28 6405 6405 163 163 1 2414.875786207 2414.875786207 2414.875786207 5831625.062809
271	642015 29 6405 6405 163 163 1 1578.4510253817 1578.4510253817 1578.4510253817 2491507.6395285

