version 2
run Default-0-20230824-08:40:43-3712
attr configname Default
attr datetime 20230824-08:40:43
attr experiment Default
attr inifile omnetpp.ini
attr iterationvars ""
attr iterationvarsf ""
attr measurement ""
attr network RSUExampleScenario
attr processid 3712
attr repetition 0
attr replication #0
attr resultdir results
attr runnumber 0
attr seedset 0
param *.playgroundSizeX 2500m
param *.playgroundSizeY 2500m
param *.playgroundSizeZ 50m
param *.annotations.draw true
param *.obstacles.obstacles "xmldoc(\"config.xml\", \"//AnalogueModel[@type='SimpleObstacleShadowing']/obstacles\")"
param *.manager.updateInterval 1s
param *.manager.host "\"localhost\""
param *.manager.port 9999
param *.manager.autoShutdown true
param *.manager.launchConfig "xmldoc(\"erlangen.launchd.xml\")"
param *.rsu[0].mobility.x 2000
param *.rsu[0].mobility.y 2000
param *.rsu[0].mobility.z 3
param *.rsu[*].applType "\"TraCIDemoRSU11p\""
param *.rsu[*].appl.headerLength "80 bit"
param *.rsu[*].appl.sendBeacons false
param *.rsu[*].appl.dataOnSch false
param *.rsu[*].appl.beaconInterval 1s
param *.rsu[*].appl.beaconUserPriority 7
param *.rsu[*].appl.dataUserPriority 5
param *.rsu[*].nic.phy80211p.antennaOffsetZ "0 m"
param *.connectionManager.sendDirect true
param *.connectionManager.maxInterfDist 2600m
param *.connectionManager.drawMaxIntfDist false
param *.**.nic.mac1609_4.useServiceChannel false
param *.**.nic.mac1609_4.txPower 20mW
param *.**.nic.mac1609_4.bitrate 6Mbps
param *.**.nic.phy80211p.minPowerLevel -110dBm
param *.**.nic.phy80211p.useNoiseFloor true
param *.**.nic.phy80211p.noiseFloor -98dBm
param *.**.nic.phy80211p.decider "xmldoc(\"config.xml\")"
param *.**.nic.phy80211p.analogueModels "xmldoc(\"config.xml\")"
param *.**.nic.phy80211p.usePropagationDelay true
param *.**.nic.phy80211p.antenna "xmldoc(\"antenna.xml\", \"/root/Antenna[@id='monopole']\")"
param *.node[*].nic.phy80211p.antennaOffsetY "0 m"
param *.node[*].nic.phy80211p.antennaOffsetZ "1.895 m"
param *.node[*].applType "\"TraCIDemo11p\""
param *.node[*].appl.headerLength "80 bit"
param *.node[*].appl.sendBeacons false
param *.node[*].appl.dataOnSch false
param *.node[*].appl.beaconInterval 1s
param *.node[*].veinsmobility.x 0
param *.node[*].veinsmobility.y 0
param *.node[*].veinsmobility.z 0
param *.node[*].veinsmobility.setHostSpeed false

vector 0 RSUExampleScenario.node[0].veinsmobility posx ETV
vector 1 RSUExampleScenario.node[0].veinsmobility posy ETV
vector 2 RSUExampleScenario.node[0].veinsmobility speed ETV
vector 3 RSUExampleScenario.node[0].veinsmobility acceleration ETV
vector 4 RSUExampleScenario.node[0].veinsmobility co2emission ETV
vector 5 RSUExampleScenario.node[1].veinsmobility posx ETV
vector 6 RSUExampleScenario.node[1].veinsmobility posy ETV
vector 7 RSUExampleScenario.node[1].veinsmobility speed ETV
vector 8 RSUExampleScenario.node[1].veinsmobility acceleration ETV
vector 9 RSUExampleScenario.node[1].veinsmobility co2emission ETV
vector 10 RSUExampleScenario.node[2].veinsmobility posx ETV
vector 11 RSUExampleScenario.node[2].veinsmobility posy ETV
vector 12 RSUExampleScenario.node[2].veinsmobility speed ETV
vector 13 RSUExampleScenario.node[2].veinsmobility acceleration ETV
vector 14 RSUExampleScenario.node[2].veinsmobility co2emission ETV
vector 15 RSUExampleScenario.node[3].veinsmobility posx ETV
vector 16 RSUExampleScenario.node[3].veinsmobility posy ETV
vector 17 RSUExampleScenario.node[3].veinsmobility speed ETV
vector 18 RSUExampleScenario.node[3].veinsmobility acceleration ETV
vector 19 RSUExampleScenario.node[3].veinsmobility co2emission ETV
vector 20 RSUExampleScenario.node[4].veinsmobility posx ETV
vector 21 RSUExampleScenario.node[4].veinsmobility posy ETV
vector 22 RSUExampleScenario.node[4].veinsmobility speed ETV
vector 23 RSUExampleScenario.node[4].veinsmobility acceleration ETV
vector 24 RSUExampleScenario.node[4].veinsmobility co2emission ETV
vector 25 RSUExampleScenario.node[5].veinsmobility posx ETV
vector 26 RSUExampleScenario.node[5].veinsmobility posy ETV
vector 27 RSUExampleScenario.node[5].veinsmobility speed ETV
vector 28 RSUExampleScenario.node[5].veinsmobility acceleration ETV
vector 29 RSUExampleScenario.node[5].veinsmobility co2emission ETV
vector 30 RSUExampleScenario.node[6].veinsmobility posx ETV
vector 31 RSUExampleScenario.node[6].veinsmobility posy ETV
vector 32 RSUExampleScenario.node[6].veinsmobility speed ETV
vector 33 RSUExampleScenario.node[6].veinsmobility acceleration ETV
vector 34 RSUExampleScenario.node[6].veinsmobility co2emission ETV
vector 35 RSUExampleScenario.node[7].veinsmobility posx ETV
vector 36 RSUExampleScenario.node[7].veinsmobility posy ETV
vector 37 RSUExampleScenario.node[7].veinsmobility speed ETV
vector 38 RSUExampleScenario.node[7].veinsmobility acceleration ETV
vector 39 RSUExampleScenario.node[7].veinsmobility co2emission ETV
vector 40 RSUExampleScenario.node[8].veinsmobility posx ETV
vector 41 RSUExampleScenario.node[8].veinsmobility posy ETV
vector 42 RSUExampleScenario.node[8].veinsmobility speed ETV
vector 43 RSUExampleScenario.node[8].veinsmobility acceleration ETV
vector 44 RSUExampleScenario.node[8].veinsmobility co2emission ETV
vector 45 RSUExampleScenario.node[9].veinsmobility posx ETV
vector 46 RSUExampleScenario.node[9].veinsmobility posy ETV
vector 47 RSUExampleScenario.node[9].veinsmobility speed ETV
vector 48 RSUExampleScenario.node[9].veinsmobility acceleration ETV
vector 49 RSUExampleScenario.node[9].veinsmobility co2emission ETV
vector 50 RSUExampleScenario.node[10].veinsmobility posx ETV
vector 51 RSUExampleScenario.node[10].veinsmobility posy ETV
vector 52 RSUExampleScenario.node[10].veinsmobility speed ETV
vector 53 RSUExampleScenario.node[10].veinsmobility acceleration ETV
vector 54 RSUExampleScenario.node[10].veinsmobility co2emission ETV
vector 55 RSUExampleScenario.node[11].veinsmobility posx ETV
vector 56 RSUExampleScenario.node[11].veinsmobility posy ETV
vector 57 RSUExampleScenario.node[11].veinsmobility speed ETV
vector 58 RSUExampleScenario.node[11].veinsmobility acceleration ETV
vector 59 RSUExampleScenario.node[11].veinsmobility co2emission ETV
vector 60 RSUExampleScenario.node[12].veinsmobility posx ETV
vector 61 RSUExampleScenario.node[12].veinsmobility posy ETV
vector 62 RSUExampleScenario.node[12].veinsmobility speed ETV
vector 63 RSUExampleScenario.node[12].veinsmobility acceleration ETV
vector 64 RSUExampleScenario.node[12].veinsmobility co2emission ETV
vector 65 RSUExampleScenario.node[13].veinsmobility posx ETV
vector 66 RSUExampleScenario.node[13].veinsmobility posy ETV
vector 67 RSUExampleScenario.node[13].veinsmobility speed ETV
vector 68 RSUExampleScenario.node[13].veinsmobility acceleration ETV
vector 69 RSUExampleScenario.node[13].veinsmobility co2emission ETV
vector 70 RSUExampleScenario.node[14].veinsmobility posx ETV
vector 71 RSUExampleScenario.node[14].veinsmobility posy ETV
vector 72 RSUExampleScenario.node[14].veinsmobility speed ETV
vector 73 RSUExampleScenario.node[14].veinsmobility acceleration ETV
vector 74 RSUExampleScenario.node[14].veinsmobility co2emission ETV
vector 75 RSUExampleScenario.node[15].veinsmobility posx ETV
vector 76 RSUExampleScenario.node[15].veinsmobility posy ETV
vector 77 RSUExampleScenario.node[15].veinsmobility speed ETV
vector 78 RSUExampleScenario.node[15].veinsmobility acceleration ETV
vector 79 RSUExampleScenario.node[15].veinsmobility co2emission ETV
vector 80 RSUExampleScenario.node[16].veinsmobility posx ETV
vector 81 RSUExampleScenario.node[16].veinsmobility posy ETV
vector 82 RSUExampleScenario.node[16].veinsmobility speed ETV
vector 83 RSUExampleScenario.node[16].veinsmobility acceleration ETV
vector 84 RSUExampleScenario.node[16].veinsmobility co2emission ETV
vector 85 RSUExampleScenario.node[17].veinsmobility posx ETV
vector 86 RSUExampleScenario.node[17].veinsmobility posy ETV
vector 87 RSUExampleScenario.node[17].veinsmobility speed ETV
vector 88 RSUExampleScenario.node[17].veinsmobility acceleration ETV
vector 89 RSUExampleScenario.node[17].veinsmobility co2emission ETV
vector 90 RSUExampleScenario.node[18].veinsmobility posx ETV
vector 91 RSUExampleScenario.node[18].veinsmobility posy ETV
vector 92 RSUExampleScenario.node[18].veinsmobility speed ETV
vector 93 RSUExampleScenario.node[18].veinsmobility acceleration ETV
vector 94 RSUExampleScenario.node[18].veinsmobility co2emission ETV
vector 95 RSUExampleScenario.node[19].veinsmobility posx ETV
vector 96 RSUExampleScenario.node[19].veinsmobility posy ETV
vector 97 RSUExampleScenario.node[19].veinsmobility speed ETV
vector 98 RSUExampleScenario.node[19].veinsmobility acceleration ETV
vector 99 RSUExampleScenario.node[19].veinsmobility co2emission ETV
vector 100 RSUExampleScenario.node[20].veinsmobility posx ETV
vector 101 RSUExampleScenario.node[20].veinsmobility posy ETV
vector 102 RSUExampleScenario.node[20].veinsmobility speed ETV
vector 103 RSUExampleScenario.node[20].veinsmobility acceleration ETV
vector 104 RSUExampleScenario.node[20].veinsmobility co2emission ETV
vector 105 RSUExampleScenario.node[21].veinsmobility posx ETV
vector 106 RSUExampleScenario.node[21].veinsmobility posy ETV
vector 107 RSUExampleScenario.node[21].veinsmobility speed ETV
vector 108 RSUExampleScenario.node[21].veinsmobility acceleration ETV
vector 109 RSUExampleScenario.node[21].veinsmobility co2emission ETV
vector 110 RSUExampleScenario.node[22].veinsmobility posx ETV
vector 111 RSUExampleScenario.node[22].veinsmobility posy ETV
vector 112 RSUExampleScenario.node[22].veinsmobility speed ETV
vector 113 RSUExampleScenario.node[22].veinsmobility acceleration ETV
vector 114 RSUExampleScenario.node[22].veinsmobility co2emission ETV
vector 115 RSUExampleScenario.node[23].veinsmobility posx ETV
vector 116 RSUExampleScenario.node[23].veinsmobility posy ETV
vector 117 RSUExampleScenario.node[23].veinsmobility speed ETV
vector 118 RSUExampleScenario.node[23].veinsmobility acceleration ETV
vector 119 RSUExampleScenario.node[23].veinsmobility co2emission ETV
vector 120 RSUExampleScenario.node[24].veinsmobility posx ETV
vector 121 RSUExampleScenario.node[24].veinsmobility posy ETV
vector 122 RSUExampleScenario.node[24].veinsmobility speed ETV
vector 123 RSUExampleScenario.node[24].veinsmobility acceleration ETV
vector 124 RSUExampleScenario.node[24].veinsmobility co2emission ETV
vector 125 RSUExampleScenario.node[25].veinsmobility posx ETV
vector 126 RSUExampleScenario.node[25].veinsmobility posy ETV
vector 127 RSUExampleScenario.node[25].veinsmobility speed ETV
vector 128 RSUExampleScenario.node[25].veinsmobility acceleration ETV
vector 129 RSUExampleScenario.node[25].veinsmobility co2emission ETV
vector 130 RSUExampleScenario.node[26].veinsmobility posx ETV
vector 131 RSUExampleScenario.node[26].veinsmobility posy ETV
vector 132 RSUExampleScenario.node[26].veinsmobility speed ETV
vector 133 RSUExampleScenario.node[26].veinsmobility acceleration ETV
vector 134 RSUExampleScenario.node[26].veinsmobility co2emission ETV
vector 135 RSUExampleScenario.node[27].veinsmobility posx ETV
vector 136 RSUExampleScenario.node[27].veinsmobility posy ETV
vector 137 RSUExampleScenario.node[27].veinsmobility speed ETV
vector 138 RSUExampleScenario.node[27].veinsmobility acceleration ETV
vector 139 RSUExampleScenario.node[27].veinsmobility co2emission ETV
vector 140 RSUExampleScenario.node[28].veinsmobility posx ETV
vector 141 RSUExampleScenario.node[28].veinsmobility posy ETV
vector 142 RSUExampleScenario.node[28].veinsmobility speed ETV
vector 143 RSUExampleScenario.node[28].veinsmobility acceleration ETV
vector 144 RSUExampleScenario.node[28].veinsmobility co2emission ETV
vector 145 RSUExampleScenario.node[29].veinsmobility posx ETV
vector 146 RSUExampleScenario.node[29].veinsmobility posy ETV
vector 147 RSUExampleScenario.node[29].veinsmobility speed ETV
vector 148 RSUExampleScenario.node[29].veinsmobility acceleration ETV
vector 149 RSUExampleScenario.node[29].veinsmobility co2emission ETV
vector 150 RSUExampleScenario.node[30].veinsmobility posx ETV
vector 151 RSUExampleScenario.node[30].veinsmobility posy ETV
vector 152 RSUExampleScenario.node[30].veinsmobility speed ETV
vector 153 RSUExampleScenario.node[30].veinsmobility acceleration ETV
vector 154 RSUExampleScenario.node[30].veinsmobility co2emission ETV
vector 155 RSUExampleScenario.node[31].veinsmobility posx ETV
vector 156 RSUExampleScenario.node[31].veinsmobility posy ETV
vector 157 RSUExampleScenario.node[31].veinsmobility speed ETV
vector 158 RSUExampleScenario.node[31].veinsmobility acceleration ETV
vector 159 RSUExampleScenario.node[31].veinsmobility co2emission ETV
vector 160 RSUExampleScenario.node[32].veinsmobility posx ETV
vector 161 RSUExampleScenario.node[32].veinsmobility posy ETV
vector 162 RSUExampleScenario.node[32].veinsmobility speed ETV
vector 163 RSUExampleScenario.node[32].veinsmobility acceleration ETV
vector 164 RSUExampleScenario.node[32].veinsmobility co2emission ETV
vector 165 RSUExampleScenario.node[33].veinsmobility posx ETV
vector 166 RSUExampleScenario.node[33].veinsmobility posy ETV
vector 167 RSUExampleScenario.node[33].veinsmobility speed ETV
vector 168 RSUExampleScenario.node[33].veinsmobility acceleration ETV
vector 169 RSUExampleScenario.node[33].veinsmobility co2emission ETV
vector 170 RSUExampleScenario.node[34].veinsmobility posx ETV
vector 171 RSUExampleScenario.node[34].veinsmobility posy ETV
vector 172 RSUExampleScenario.node[34].veinsmobility speed ETV
vector 173 RSUExampleScenario.node[34].veinsmobility acceleration ETV
vector 174 RSUExampleScenario.node[34].veinsmobility co2emission ETV
vector 175 RSUExampleScenario.node[35].veinsmobility posx ETV
vector 176 RSUExampleScenario.node[35].veinsmobility posy ETV
vector 177 RSUExampleScenario.node[35].veinsmobility speed ETV
vector 178 RSUExampleScenario.node[35].veinsmobility acceleration ETV
vector 179 RSUExampleScenario.node[35].veinsmobility co2emission ETV
vector 180 RSUExampleScenario.node[36].veinsmobility posx ETV
vector 181 RSUExampleScenario.node[36].veinsmobility posy ETV
vector 182 RSUExampleScenario.node[36].veinsmobility speed ETV
vector 183 RSUExampleScenario.node[36].veinsmobility acceleration ETV
vector 184 RSUExampleScenario.node[36].veinsmobility co2emission ETV
vector 185 RSUExampleScenario.node[37].veinsmobility posx ETV
vector 186 RSUExampleScenario.node[37].veinsmobility posy ETV
vector 187 RSUExampleScenario.node[37].veinsmobility speed ETV
vector 188 RSUExampleScenario.node[37].veinsmobility acceleration ETV
vector 189 RSUExampleScenario.node[37].veinsmobility co2emission ETV
vector 190 RSUExampleScenario.node[38].veinsmobility posx ETV
vector 191 RSUExampleScenario.node[38].veinsmobility posy ETV
vector 192 RSUExampleScenario.node[38].veinsmobility speed ETV
vector 193 RSUExampleScenario.node[38].veinsmobility acceleration ETV
vector 194 RSUExampleScenario.node[38].veinsmobility co2emission ETV
vector 195 RSUExampleScenario.node[39].veinsmobility posx ETV
vector 196 RSUExampleScenario.node[39].veinsmobility posy ETV
vector 197 RSUExampleScenario.node[39].veinsmobility speed ETV
vector 198 RSUExampleScenario.node[39].veinsmobility acceleration ETV
vector 199 RSUExampleScenario.node[39].veinsmobility co2emission ETV
vector 200 RSUExampleScenario.node[40].veinsmobility posx ETV
vector 201 RSUExampleScenario.node[40].veinsmobility posy ETV
vector 202 RSUExampleScenario.node[40].veinsmobility speed ETV
vector 203 RSUExampleScenario.node[40].veinsmobility acceleration ETV
vector 204 RSUExampleScenario.node[40].veinsmobility co2emission ETV
vector 205 RSUExampleScenario.node[41].veinsmobility posx ETV
vector 206 RSUExampleScenario.node[41].veinsmobility posy ETV
vector 207 RSUExampleScenario.node[41].veinsmobility speed ETV
vector 208 RSUExampleScenario.node[41].veinsmobility acceleration ETV
vector 209 RSUExampleScenario.node[41].veinsmobility co2emission ETV
vector 210 RSUExampleScenario.node[42].veinsmobility posx ETV
vector 211 RSUExampleScenario.node[42].veinsmobility posy ETV
vector 212 RSUExampleScenario.node[42].veinsmobility speed ETV
vector 213 RSUExampleScenario.node[42].veinsmobility acceleration ETV
vector 214 RSUExampleScenario.node[42].veinsmobility co2emission ETV
vector 215 RSUExampleScenario.node[43].veinsmobility posx ETV
vector 216 RSUExampleScenario.node[43].veinsmobility posy ETV
vector 217 RSUExampleScenario.node[43].veinsmobility speed ETV
vector 218 RSUExampleScenario.node[43].veinsmobility acceleration ETV
vector 219 RSUExampleScenario.node[43].veinsmobility co2emission ETV
vector 220 RSUExampleScenario.node[44].veinsmobility posx ETV
vector 221 RSUExampleScenario.node[44].veinsmobility posy ETV
vector 222 RSUExampleScenario.node[44].veinsmobility speed ETV
vector 223 RSUExampleScenario.node[44].veinsmobility acceleration ETV
vector 224 RSUExampleScenario.node[44].veinsmobility co2emission ETV
vector 225 RSUExampleScenario.node[45].veinsmobility posx ETV
vector 226 RSUExampleScenario.node[45].veinsmobility posy ETV
vector 227 RSUExampleScenario.node[45].veinsmobility speed ETV
vector 228 RSUExampleScenario.node[45].veinsmobility acceleration ETV
vector 229 RSUExampleScenario.node[45].veinsmobility co2emission ETV
vector 230 RSUExampleScenario.node[46].veinsmobility posx ETV
vector 231 RSUExampleScenario.node[46].veinsmobility posy ETV
vector 232 RSUExampleScenario.node[46].veinsmobility speed ETV
vector 233 RSUExampleScenario.node[46].veinsmobility acceleration ETV
vector 234 RSUExampleScenario.node[46].veinsmobility co2emission ETV
vector 235 RSUExampleScenario.node[47].veinsmobility posx ETV
vector 236 RSUExampleScenario.node[47].veinsmobility posy ETV
vector 237 RSUExampleScenario.node[47].veinsmobility speed ETV
vector 238 RSUExampleScenario.node[47].veinsmobility acceleration ETV
vector 239 RSUExampleScenario.node[47].veinsmobility co2emission ETV
vector 240 RSUExampleScenario.node[48].veinsmobility posx ETV
vector 241 RSUExampleScenario.node[48].veinsmobility posy ETV
vector 242 RSUExampleScenario.node[48].veinsmobility speed ETV
vector 243 RSUExampleScenario.node[48].veinsmobility acceleration ETV
vector 244 RSUExampleScenario.node[48].veinsmobility co2emission ETV
vector 245 RSUExampleScenario.node[49].veinsmobility posx ETV
vector 246 RSUExampleScenario.node[49].veinsmobility posy ETV
vector 247 RSUExampleScenario.node[49].veinsmobility speed ETV
vector 248 RSUExampleScenario.node[49].veinsmobility acceleration ETV
vector 249 RSUExampleScenario.node[49].veinsmobility co2emission ETV
vector 250 RSUExampleScenario.node[50].veinsmobility posx ETV
vector 251 RSUExampleScenario.node[50].veinsmobility posy ETV
vector 252 RSUExampleScenario.node[50].veinsmobility speed ETV
vector 253 RSUExampleScenario.node[50].veinsmobility acceleration ETV
vector 254 RSUExampleScenario.node[50].veinsmobility co2emission ETV
vector 255 RSUExampleScenario.node[51].veinsmobility posx ETV
vector 256 RSUExampleScenario.node[51].veinsmobility posy ETV
vector 257 RSUExampleScenario.node[51].veinsmobility speed ETV
vector 258 RSUExampleScenario.node[51].veinsmobility acceleration ETV
vector 259 RSUExampleScenario.node[51].veinsmobility co2emission ETV
vector 260 RSUExampleScenario.node[52].veinsmobility posx ETV
vector 261 RSUExampleScenario.node[52].veinsmobility posy ETV
vector 262 RSUExampleScenario.node[52].veinsmobility speed ETV
vector 263 RSUExampleScenario.node[52].veinsmobility acceleration ETV
vector 264 RSUExampleScenario.node[52].veinsmobility co2emission ETV
vector 265 RSUExampleScenario.node[53].veinsmobility posx ETV
vector 266 RSUExampleScenario.node[53].veinsmobility posy ETV
vector 267 RSUExampleScenario.node[53].veinsmobility speed ETV
vector 268 RSUExampleScenario.node[53].veinsmobility acceleration ETV
vector 269 RSUExampleScenario.node[53].veinsmobility co2emission ETV
vector 270 RSUExampleScenario.node[54].veinsmobility posx ETV
vector 271 RSUExampleScenario.node[54].veinsmobility posy ETV
vector 272 RSUExampleScenario.node[54].veinsmobility speed ETV
vector 273 RSUExampleScenario.node[54].veinsmobility acceleration ETV
vector 274 RSUExampleScenario.node[54].veinsmobility co2emission ETV
vector 275 RSUExampleScenario.node[55].veinsmobility posx ETV
vector 276 RSUExampleScenario.node[55].veinsmobility posy ETV
vector 277 RSUExampleScenario.node[55].veinsmobility speed ETV
vector 278 RSUExampleScenario.node[55].veinsmobility acceleration ETV
vector 279 RSUExampleScenario.node[55].veinsmobility co2emission ETV
vector 280 RSUExampleScenario.node[56].veinsmobility posx ETV
vector 281 RSUExampleScenario.node[56].veinsmobility posy ETV
vector 282 RSUExampleScenario.node[56].veinsmobility speed ETV
vector 283 RSUExampleScenario.node[56].veinsmobility acceleration ETV
vector 284 RSUExampleScenario.node[56].veinsmobility co2emission ETV
vector 285 RSUExampleScenario.node[57].veinsmobility posx ETV
vector 286 RSUExampleScenario.node[57].veinsmobility posy ETV
vector 287 RSUExampleScenario.node[57].veinsmobility speed ETV
vector 288 RSUExampleScenario.node[57].veinsmobility acceleration ETV
vector 289 RSUExampleScenario.node[57].veinsmobility co2emission ETV
vector 290 RSUExampleScenario.node[58].veinsmobility posx ETV
vector 291 RSUExampleScenario.node[58].veinsmobility posy ETV
vector 292 RSUExampleScenario.node[58].veinsmobility speed ETV
vector 293 RSUExampleScenario.node[58].veinsmobility acceleration ETV
vector 294 RSUExampleScenario.node[58].veinsmobility co2emission ETV
vector 295 RSUExampleScenario.node[59].veinsmobility posx ETV
vector 296 RSUExampleScenario.node[59].veinsmobility posy ETV
vector 297 RSUExampleScenario.node[59].veinsmobility speed ETV
vector 298 RSUExampleScenario.node[59].veinsmobility acceleration ETV
vector 299 RSUExampleScenario.node[59].veinsmobility co2emission ETV
vector 300 RSUExampleScenario.node[60].veinsmobility posx ETV
vector 301 RSUExampleScenario.node[60].veinsmobility posy ETV
vector 302 RSUExampleScenario.node[60].veinsmobility speed ETV
vector 303 RSUExampleScenario.node[60].veinsmobility acceleration ETV
vector 304 RSUExampleScenario.node[60].veinsmobility co2emission ETV
vector 305 RSUExampleScenario.node[61].veinsmobility posx ETV
vector 306 RSUExampleScenario.node[61].veinsmobility posy ETV
vector 307 RSUExampleScenario.node[61].veinsmobility speed ETV
vector 308 RSUExampleScenario.node[61].veinsmobility acceleration ETV
vector 309 RSUExampleScenario.node[61].veinsmobility co2emission ETV
vector 310 RSUExampleScenario.node[62].veinsmobility posx ETV
vector 311 RSUExampleScenario.node[62].veinsmobility posy ETV
vector 312 RSUExampleScenario.node[62].veinsmobility speed ETV
vector 313 RSUExampleScenario.node[62].veinsmobility acceleration ETV
vector 314 RSUExampleScenario.node[62].veinsmobility co2emission ETV
vector 315 RSUExampleScenario.node[63].veinsmobility posx ETV
vector 316 RSUExampleScenario.node[63].veinsmobility posy ETV
vector 317 RSUExampleScenario.node[63].veinsmobility speed ETV
vector 318 RSUExampleScenario.node[63].veinsmobility acceleration ETV
vector 319 RSUExampleScenario.node[63].veinsmobility co2emission ETV
vector 320 RSUExampleScenario.node[64].veinsmobility posx ETV
vector 321 RSUExampleScenario.node[64].veinsmobility posy ETV
vector 322 RSUExampleScenario.node[64].veinsmobility speed ETV
vector 323 RSUExampleScenario.node[64].veinsmobility acceleration ETV
vector 324 RSUExampleScenario.node[64].veinsmobility co2emission ETV
vector 325 RSUExampleScenario.node[65].veinsmobility posx ETV
vector 326 RSUExampleScenario.node[65].veinsmobility posy ETV
vector 327 RSUExampleScenario.node[65].veinsmobility speed ETV
vector 328 RSUExampleScenario.node[65].veinsmobility acceleration ETV
vector 329 RSUExampleScenario.node[65].veinsmobility co2emission ETV
vector 330 RSUExampleScenario.node[66].veinsmobility posx ETV
vector 331 RSUExampleScenario.node[66].veinsmobility posy ETV
vector 332 RSUExampleScenario.node[66].veinsmobility speed ETV
vector 333 RSUExampleScenario.node[66].veinsmobility acceleration ETV
vector 334 RSUExampleScenario.node[66].veinsmobility co2emission ETV
vector 335 RSUExampleScenario.node[67].veinsmobility posx ETV
vector 336 RSUExampleScenario.node[67].veinsmobility posy ETV
vector 337 RSUExampleScenario.node[67].veinsmobility speed ETV
vector 338 RSUExampleScenario.node[67].veinsmobility acceleration ETV
vector 339 RSUExampleScenario.node[67].veinsmobility co2emission ETV
vector 340 RSUExampleScenario.node[68].veinsmobility posx ETV
vector 341 RSUExampleScenario.node[68].veinsmobility posy ETV
vector 342 RSUExampleScenario.node[68].veinsmobility speed ETV
vector 343 RSUExampleScenario.node[68].veinsmobility acceleration ETV
vector 344 RSUExampleScenario.node[68].veinsmobility co2emission ETV
vector 345 RSUExampleScenario.node[69].veinsmobility posx ETV
vector 346 RSUExampleScenario.node[69].veinsmobility posy ETV
vector 347 RSUExampleScenario.node[69].veinsmobility speed ETV
vector 348 RSUExampleScenario.node[69].veinsmobility acceleration ETV
vector 349 RSUExampleScenario.node[69].veinsmobility co2emission ETV
vector 350 RSUExampleScenario.node[70].veinsmobility posx ETV
vector 351 RSUExampleScenario.node[70].veinsmobility posy ETV
vector 352 RSUExampleScenario.node[70].veinsmobility speed ETV
vector 353 RSUExampleScenario.node[70].veinsmobility acceleration ETV
vector 354 RSUExampleScenario.node[70].veinsmobility co2emission ETV
vector 355 RSUExampleScenario.node[71].veinsmobility posx ETV
vector 356 RSUExampleScenario.node[71].veinsmobility posy ETV
vector 357 RSUExampleScenario.node[71].veinsmobility speed ETV
vector 358 RSUExampleScenario.node[71].veinsmobility acceleration ETV
vector 359 RSUExampleScenario.node[71].veinsmobility co2emission ETV
vector 360 RSUExampleScenario.node[72].veinsmobility posx ETV
vector 361 RSUExampleScenario.node[72].veinsmobility posy ETV
vector 362 RSUExampleScenario.node[72].veinsmobility speed ETV
vector 363 RSUExampleScenario.node[72].veinsmobility acceleration ETV
vector 364 RSUExampleScenario.node[72].veinsmobility co2emission ETV
vector 365 RSUExampleScenario.node[73].veinsmobility posx ETV
vector 366 RSUExampleScenario.node[73].veinsmobility posy ETV
vector 367 RSUExampleScenario.node[73].veinsmobility speed ETV
vector 368 RSUExampleScenario.node[73].veinsmobility acceleration ETV
vector 369 RSUExampleScenario.node[73].veinsmobility co2emission ETV
vector 370 RSUExampleScenario.node[74].veinsmobility posx ETV
vector 371 RSUExampleScenario.node[74].veinsmobility posy ETV
vector 372 RSUExampleScenario.node[74].veinsmobility speed ETV
vector 373 RSUExampleScenario.node[74].veinsmobility acceleration ETV
vector 374 RSUExampleScenario.node[74].veinsmobility co2emission ETV
vector 375 RSUExampleScenario.node[75].veinsmobility posx ETV
vector 376 RSUExampleScenario.node[75].veinsmobility posy ETV
vector 377 RSUExampleScenario.node[75].veinsmobility speed ETV
vector 378 RSUExampleScenario.node[75].veinsmobility acceleration ETV
vector 379 RSUExampleScenario.node[75].veinsmobility co2emission ETV
vector 380 RSUExampleScenario.node[76].veinsmobility posx ETV
vector 381 RSUExampleScenario.node[76].veinsmobility posy ETV
vector 382 RSUExampleScenario.node[76].veinsmobility speed ETV
vector 383 RSUExampleScenario.node[76].veinsmobility acceleration ETV
vector 384 RSUExampleScenario.node[76].veinsmobility co2emission ETV
vector 385 RSUExampleScenario.node[77].veinsmobility posx ETV
vector 386 RSUExampleScenario.node[77].veinsmobility posy ETV
vector 387 RSUExampleScenario.node[77].veinsmobility speed ETV
vector 388 RSUExampleScenario.node[77].veinsmobility acceleration ETV
vector 389 RSUExampleScenario.node[77].veinsmobility co2emission ETV
vector 390 RSUExampleScenario.node[78].veinsmobility posx ETV
vector 391 RSUExampleScenario.node[78].veinsmobility posy ETV
vector 392 RSUExampleScenario.node[78].veinsmobility speed ETV
vector 393 RSUExampleScenario.node[78].veinsmobility acceleration ETV
vector 394 RSUExampleScenario.node[78].veinsmobility co2emission ETV
vector 395 RSUExampleScenario.node[79].veinsmobility posx ETV
vector 396 RSUExampleScenario.node[79].veinsmobility posy ETV
vector 397 RSUExampleScenario.node[79].veinsmobility speed ETV
vector 398 RSUExampleScenario.node[79].veinsmobility acceleration ETV
vector 399 RSUExampleScenario.node[79].veinsmobility co2emission ETV
vector 400 RSUExampleScenario.node[80].veinsmobility posx ETV
vector 401 RSUExampleScenario.node[80].veinsmobility posy ETV
vector 402 RSUExampleScenario.node[80].veinsmobility speed ETV
vector 403 RSUExampleScenario.node[80].veinsmobility acceleration ETV
vector 404 RSUExampleScenario.node[80].veinsmobility co2emission ETV
vector 405 RSUExampleScenario.node[81].veinsmobility posx ETV
vector 406 RSUExampleScenario.node[81].veinsmobility posy ETV
vector 407 RSUExampleScenario.node[81].veinsmobility speed ETV
vector 408 RSUExampleScenario.node[81].veinsmobility acceleration ETV
vector 409 RSUExampleScenario.node[81].veinsmobility co2emission ETV
vector 410 RSUExampleScenario.node[82].veinsmobility posx ETV
vector 411 RSUExampleScenario.node[82].veinsmobility posy ETV
vector 412 RSUExampleScenario.node[82].veinsmobility speed ETV
vector 413 RSUExampleScenario.node[82].veinsmobility acceleration ETV
vector 414 RSUExampleScenario.node[82].veinsmobility co2emission ETV
vector 415 RSUExampleScenario.node[83].veinsmobility posx ETV
vector 416 RSUExampleScenario.node[83].veinsmobility posy ETV
vector 417 RSUExampleScenario.node[83].veinsmobility speed ETV
vector 418 RSUExampleScenario.node[83].veinsmobility acceleration ETV
vector 419 RSUExampleScenario.node[83].veinsmobility co2emission ETV
4	4	3	4.1962556146115
4	5	4	4.6765885426193
4	6	5	5.9822455727343
4	7	6	6.7469998477461
4	8	7	8.9023657158011
4	9	8	3.651678681686
4	10	9	1.6857621818206
4	11	10	2.3276633668785
4	13	11	2.0995306276608
4	42	12	1.7923040941768
4	44	13	2.0305681317735
4	75	14	1.9844951865828
4	77	15	2.2187318873595
4	108	16	2.1416854339172
4	110	17	1.8896148890835
4	146	18	2.0499339673421
4	148	19	0.973
4	189	20	0.973
4	191	21	3.236958348016
4	232	22	7.0694109561587
4	234	23	7.2974163894139
4	280	24	8.7433911631671
4	282	25	1.9831721788576
4	333	26	2.116835898497
4	335	27	1.9244585801898
4	386	28	1.8775583559564
4	388	29	1.9545657515643
4	444	30	2.0931646705581
4	446	31	2.2926746988581
4	507	32	1.993865292131
4	509	33	1.6968396252803
4	567	34	2.4149847823944
4	569	35	1.6983583398882
4	629	36	1.9906198998388
4	631	37	2.3442713071536
4	693	38	1.7018725964397
4	695	39	2.0993392475273
4	754	40	1.9585122345881
4	756	41	2.4691677522194
4	823	42	1.9170802753567
4	825	43	1.8345014514108
4	897	44	2.0838538984303
4	899	45	2.0539801513469
4	971	46	2.0668686152862
4	973	47	1.9813596940184
4	1047	48	2.1840996762636
4	1049	49	2.0987681125428
4	1128	50	1.8592856847688
4	1130	51	2.0145873760113
4	1325	52	2.0950692067684
4	1327	53	1.8080099866508
4	1388	54	1.9870007069688
4	1389	55	2.2415869227426
4	1455	56	2.0614496349521
4	1456	57	2.0646020593826
4	1525	58	1.8102089718445
4	1526	59	2.1453880261281
4	1597	60	1.9826536733129
4	1598	61	2.0673636130683
4	1674	62	2.0538817544551
4	1675	63	2.1528270365066
4	1751	64	2.0265038417738
4	1752	65	1.9764402783138
4	1836	66	2.2347131127692
4	1837	67	2.0405446651404
4	1926	68	1.6487905152147
4	1927	69	2.0126291187762
4	2016	70	2.0466796925005
4	2017	71	2.3433989621326
4	2108	72	0.973
4	2109	73	0.973
4	2202	74	4.8809554156367
4	2203	75	6.6811452761601
4	2296	76	8.1607584221603
4	2297	77	6.9480584672652
4	2392	78	1.6680322027993
4	2393	79	2.2170514259717
4	2496	80	2.1579993066844
4	2497	81	1.8393252185798
4	2603	82	2.1131063774542
4	2604	83	2.157506963768
4	2718	84	2.0867532276998
4	2719	85	1.9721338004887
4	2838	86	1.8000889448787
4	2839	87	2.0655927143501
4	2955	88	2.1236171019815
4	2956	89	1.8979343131076
4	3077	90	2.2156768175481
4	3078	91	2.1479163480387
4	3207	92	1.9028703189759
4	3208	93	1.9274090838955
4	3337	94	2.0077586487826
4	3338	95	2.0511097794732
4	3469	96	2.0576484682309
4	3470	97	2.2398922754829
4	3606	98	1.9069349143407
4	3607	99	1.9432214712872
4	3746	100	2.1439613436349
4	3747	101	1.8168896615362
4	3888	102	2.1233006114287
4	3889	103	2.1130242583451
4	4032	104	2.0088001748926
4	4033	105	1.9072621324086
4	4176	106	2.2140373373517
4	4177	107	2.1770614278808
4	4322	108	1.6473510828978
4	4323	109	2.1220983905492
4	4473	110	1.9751750017376
4	4474	111	2.0960799393481
4	4624	112	1.8831767790609
4	4625	113	2.2460956727086
4	4783	114	1.8324400030243
4	4784	115	2.3879104851153
4	4947	116	1.6666890233496
4	4948	117	2.1857539942143
4	5114	118	2.1120842252302
4	5115	119	2.1211551333534
4	5286	120	1.7936195303491
4	5287	121	2.2148160768082
4	5460	122	1.8619680915987
4	5461	123	2.0258853731746
4	5634	124	2.304380476416
4	5635	125	1.6887067812302
4	5810	126	2.0733073570021
4	5811	127	2.1023355462812
4	5994	128	2.0793892076523
4	5995	129	1.8544662206567
4	6178	130	2.4259796074968
4	6179	131	1.633853726441
4	6373	132	2.1557066895618
4	6374	133	2.0528665696243
4	6573	134	1.912038644498
4	6574	135	2.0057614883071
4	6773	136	2.2439569957465
4	6774	137	1.8440580280714
4	6975	138	2.231711462374
4	6976	139	1.9850053294315
4	7185	140	1.9980235595548
4	7186	141	2.0975280706569
4	7395	142	2.0729929956751
4	7396	143	1.9615701670856
4	7755	144	2.0809115709552
4	7756	145	1.8061360510748
4	7758	146	2.2506757699835
4	7759	147	1.8061733875953
4	7760	148	2.4266845615448
4	7761	149	2.0192126891949
4	7762	150	1.7642446806966
4	7763	151	2.1464322636876
4	7764	152	1.954085001403
4	7765	153	2.1942935692296
4	7766	154	1.721247569189
4	7767	155	2.0240866259417
4	7768	156	2.1690471500905
4	7769	157	2.2978220226587
4	7770	158	1.9699951794538
4	7771	159	2.041236054439
4	7772	160	2.1134871274209
4	7773	161	1.9036851063429
4	7774	162	2.1413264045017
4	7775	163	1.8950788450201
4	7776	164	2.1235722209708
4	7777	165	2.0612404299833
4	7778	166	1.8999094614842
4	7779	167	2.0705621398081
4	7780	168	1.9611367237514
4	7781	169	2.2556808060981
4	7782	170	1.9290670990496
4	7783	171	2.1365950768377
4	7784	172	1.9872740217513
4	7785	173	2.009453645548
4	7786	174	1.9884640791529
4	7787	175	1.8229391595762
4	7788	176	2.3789436116768
4	7789	177	1.9044186435818
4	7790	178	2.1589494721561
4	7791	179	1.8396713411021
4	7792	180	2.0696270191915
4	7793	181	2.0111236607463
4	7794	182	1.9642910512727
4	7795	183	2.1731615557441
4	7796	184	1.923572434874
4	7797	185	1.8561023258353
4	7798	186	2.1890582187141
4	7799	187	2.1963956888293
4	7800	188	1.9231637928399
4	7801	189	2.1054147024235
4	7802	190	1.7188260663154
4	7803	191	2.4031119214083
4	7804	192	1.8265887841823
4	7805	193	1.8918554453362
4	7806	194	2.0771229812591
4	7807	195	2.1191228175185
4	7808	196	2.0232267690783
4	7809	197	2.1252008054669
4	7810	198	2.0275077178617
4	7811	199	2.0412729242551
4	7812	200	1.7874619867738
4	7813	201	2.2859641989041
4	7814	202	1.7940359853847
4	7815	203	2.1799404191352
4	7816	204	1.9272899846583
4	7817	205	1.9695069431442
4	7818	206	2.247800618249
4	7819	207	1.9354210695658
4	7820	208	2.0193439936341
4	7821	209	1.9710458469821
4	7822	210	2.392101304659
4	7823	211	1.9927077527417
4	7824	212	1.8397637646392
4	7825	213	1.9840400683757
4	7826	214	2.3213577844599
4	7827	215	1.8937752237764
4	7828	216	1.8274126550796
4	7829	217	2.3702998795124
4	7830	218	1.9728895981744
4	7831	219	1.9947872757439
4	7832	220	1.845617191009
4	7833	221	2.1789838711519
4	7834	222	1.9398426027184
4	7835	223	1.9001388053087
4	7836	224	2.0537167387739
4	7837	225	2.3818261828939
4	7838	226	1.7837090017641
4	7839	227	2.2168901721487
4	7840	228	1.9771353540298
4	7841	229	1.866469389554
4	7842	230	2.0279100775716
4	7843	231	1.9000183733777
4	7844	232	2.155909497764
4	7845	233	2.2403197427168
4	7846	234	1.7402993602827
4	7847	235	2.1019548025287
4	7848	236	2.1422076955629
4	7849	237	1.9422290772013
4	7850	238	1.9718870457347
4	7851	239	2.1092965685402
4	7852	240	1.9707630538624
4	7853	241	1.9644605793706
4	7854	242	2.0439016836958
4	7855	243	2.1522768550494
4	7856	244	2.2749420380641
4	7857	245	1.7960235898673
4	7858	246	1.870149620829
4	7859	247	2.0116192457564
4	7860	248	2.3000415812287
4	7861	249	0.973
4	7862	250	0.973
4	7863	251	6.2155201129428
4	7864	252	6.9426786212708
3	4	3	1.9133529532584
3	5	4	1.6952873393311
3	6	5	1.8731499400432
3	7	6	1.8034025248489
3	8	7	2.1224504257739
3	9	8	0.47851136310433
3	10	9	-0.1021267059911
3	11	10	0.086452728209551
3	13	11	0.018149402965792
3	42	12	-0.071146251906175
3	44	13	-0.0001373288989992
3	75	14	-0.013471481548622
3	77	15	0.054527352924923
3	108	16	0.03063477210002
3	110	17	-0.04292928970186
3	146	18	0.0046075960877356
3	148	19	-2.4534173319781
3	189	20	-4.5
3	191	21	0.8935116339894
3	232	22	2.2078255666373
3	234	23	1.8858743545134
3	280	24	1.9903831391631
3	282	25	-0.01549494290026
3	333	26	0.023465231521987
3	335	27	-0.032681161146611
3	386	28	-0.045395484422334
3	388	29	-0.021798015409148
3	444	30	0.019004409639164
3	446	31	0.075803257238585
3	507	32	-0.012492124584968
3	509	33	-0.098418530665803
3	567	34	0.11205169297755
3	569	35	-0.098285225864965
3	629	36	-0.01064266787842
3	631	37	0.091707072502468
3	693	38	-0.096865584938786
3	695	39	0.021350334375166
3	754	40	-0.020129852422979
3	756	41	0.12754734932445
3	823	42	-0.035107081409079
3	825	43	-0.058123281914741
3	897	44	0.015779600332026
3	899	45	0.0066701874043797
3	971	46	0.010192284216172
3	973	47	-0.014827134867664
3	1047	48	0.044105808557942
3	1049	49	0.018181241797283
3	1128	50	-0.051492602068466
3	1130	51	-0.0050966037251055
3	1325	52	0.018296227052343
3	1327	53	-0.065421910630539
3	1388	54	-0.011582619075197
3	1389	55	0.062391626026946
3	1455	56	0.0084849686850799
3	1456	57	0.0091393382777465
3	1525	58	-0.064856647045817
3	1526	59	0.034172988792415
3	1597	60	-0.013924592840485
3	1598	61	0.011007046941668
3	1674	62	0.0067783149331806
3	1675	63	0.035106239686721
3	1751	64	-0.0023704322986315
3	1752	65	-0.016764806038699
3	1836	66	0.058098005878273
3	1837	67	0.0005279496987356
3	1926	68	-0.11307939741528
3	1927	69	-0.0042316347081215
3	2016	70	0.0057685952470639
3	2017	71	0.091050112515221
3	2108	72	-2.598181629278
3	2109	73	-4.5
3	2202	74	1.6141663366905
3	2203	75	1.9674479348469
3	2296	76	2.0734577935305
3	2297	77	1.4561270096891
3	2392	78	-0.10729147155071
3	2393	79	0.054895354490727
3	2496	80	0.036124135965947
3	2497	81	-0.056995702513959
3	2603	82	0.023857689527794
3	2604	83	0.035887326465454
3	2718	84	0.014430570646654
3	2719	85	-0.01900723606348
3	2838	86	-0.068357068288606
3	2839	87	0.010541806844994
3	2955	88	0.026970727464649
3	2956	89	-0.039115454021376
3	3077	90	0.053862404460089
3	3078	91	0.032648311303928
3	3207	92	-0.038956657010131
3	3208	93	-0.030791588313878
3	3337	94	-0.0066424664109945
3	3338	95	0.0060977504285979
3	3469	96	0.0078052465082141
3	3470	97	0.060013508324046
3	3606	98	-0.037713673899415
3	3607	99	-0.026174776835834
3	3746	100	0.032579503944145
3	3747	101	-0.063035905060826
3	3888	102	0.027582935572138
3	3889	103	0.023756794685031
3	4032	104	-0.0070456224540241
3	4033	105	-0.036268282788805
3	4176	106	0.053466656929812
3	4177	107	0.041100041202736
3	4322	108	-0.11342956024222
3	4323	109	0.027575471245218
3	4473	110	-0.015790211500134
3	4474	111	0.019690123212058
3	4624	112	-0.042638254987542
3	4625	113	0.063690714961849
3	4783	114	-0.057965367154683
3	4784	115	0.10416653290857
3	4947	116	-0.10745216409443
3	4948	117	0.046229086213279
3	5114	118	0.023514178059996
3	5115	119	0.025394806491676
3	5286	120	-0.070123969523701
3	5287	121	0.05377569567645
3	5460	122	-0.04982492672978
3	5461	123	-0.00087602079613092
3	5634	124	0.079375873252284
3	5635	125	-0.1010160947917
3	5810	126	0.013532487608026
3	5811	127	0.021514236293733
3	5994	128	0.014224878873211
3	5995	129	-0.051406734401827
3	6178	130	0.11500627390342
3	6179	131	-0.11731649283087
3	6373	132	0.037494972553104
3	6374	133	0.0066204329836186
3	6573	134	-0.034399984232149
3	6574	135	-0.0062071811757054
3	6773	136	0.062807197936344
3	6774	137	-0.054763080677949
3	6975	138	0.059015492813197
3	6976	139	-0.013975105474238
3	7185	140	-0.0098069754173054
3	7186	141	0.019237040039153
3	7395	142	0.011573406711687
3	7396	143	-0.020956001298037
3	7755	144	0.014142121695913
3	7756	145	-0.065922225145624
3	7758	146	0.064693366650026
3	7759	147	-0.065880628703161
3	7760	148	0.11515686275204
3	7761	149	-0.0054930684855208
3	7762	150	-0.079169188719241
3	7763	151	0.033730446444824
3	7764	152	-0.0228520826553
3	7765	153	0.047151762775611
3	7766	154	-0.091206070086919
3	7767	155	-0.00063311950070855
3	7768	156	0.041333502004855
3	7769	157	0.076955872832331
3	7770	158	-0.019675534043927
3	7771	159	0.0014335568435495
3	7772	160	0.022174404172693
3	7773	161	-0.038941256871913
3	7774	162	0.030695147525986
3	7775	163	-0.04121100856457
3	7776	164	0.025922144111247
3	7777	165	0.0071923485631125
3	7778	166	-0.039595530030784
3	7779	167	0.010853665114846
3	7780	168	-0.021078646411189
3	7781	169	0.064385496126489
3	7782	170	-0.031554398436565
3	7783	171	0.029159537090454
3	7784	172	-0.014684538582804
3	7785	173	-0.0078666105773308
3	7786	174	-0.013697546005714
3	7787	175	-0.06131455638446
3	7788	176	0.1008924189629
3	7789	177	-0.038706410704181
3	7790	178	0.035774679987226
3	7791	179	-0.057385696403216
3	7792	180	0.010741776425856
3	7793	181	-0.0064688647538418
3	7794	182	-0.01983351490926
3	7795	183	0.041050446596929
3	7796	184	-0.032217842522078
3	7797	185	-0.050955639351159
3	7798	186	0.04699437828036
3	7799	187	0.047569927864243
3	7800	188	-0.032647112903652
3	7801	189	0.020928164378274
3	7802	190	-0.091782979732379
3	7803	191	0.10875057560159
3	7804	192	-0.060795214870012
3	7805	193	-0.040233581850771
3	7806	194	0.014695980667602
3	7807	195	0.026387274002191
3	7808	196	-0.0021348645421675
3	7809	197	0.027381560134234
3	7810	198	-0.0016384923108852
3	7811	199	0.0023850808525463
3	7812	200	-0.071337920916267
3	7813	201	0.075058642441872
3	7814	202	-0.069512550472281
3	7815	203	0.044363746291491
3	7816	204	-0.030078826393
3	7817	205	-0.016976084767375
3	7818	206	0.063993390803224
3	7819	207	-0.028184901357163
3	7820	208	-0.0030630180658768
3	7821	209	-0.016976034734398
3	7822	210	0.10479507165262
3	7823	211	-0.013211421454326
3	7824	212	-0.057094136055094
3	7825	213	-0.013706459412351
3	7826	214	0.083830608546268
3	7827	215	-0.041779491452035
3	7828	216	-0.059950716574676
3	7829	217	0.098461431174073
3	7830	218	-0.018828529044985
3	7831	219	-0.011973386614118
3	7832	220	-0.054853362506256
3	7833	221	0.043154953562189
3	7834	222	-0.027196423076093
3	7835	223	-0.037979120847304
3	7836	224	0.0076740621007048
3	7837	225	0.10181095059728
3	7838	226	-0.073669197976123
3	7839	227	0.053598402959759
3	7840	228	-0.017086343464907
3	7841	229	-0.048676233110017
3	7842	230	-0.0005028710095214
3	7843	231	-0.037615004268009
3	7844	232	0.037678894139825
3	7845	233	0.060744162921329
3	7846	234	-0.085698609841057
3	7847	235	0.021687922640703
3	7848	236	0.032629402803723
3	7849	237	-0.026155869879295
3	7850	238	-0.016820155980531
3	7851	239	0.023457866050304
3	7852	240	-0.017334249692505
3	7853	241	-0.018673455752431
3	7854	242	0.0049182024737817
3	7855	243	0.03610487366328
3	7856	244	0.070166818364523
3	7857	245	-0.070058906949125
3	7858	246	-0.046709825969302
3	7859	247	-0.0042825089534748
3	7860	248	0.079118450649549
3	7861	249	-3.0745351618249
3	7862	250	-4.4863291299924
3	7863	251	2.228807697075
3	7864	252	2.0289484944078
2	3	2	4.1061966058897
2	4	3	6.0195495591482
2	5	4	7.7148368984793
2	6	5	9.5879868385225
2	7	6	11.391389363371
2	8	7	13.513839789145
2	9	8	13.99235115225
2	10	9	13.890224446259
2	11	10	13.976677174468
2	13	11	13.994826577434
2	42	12	13.923680325528
2	44	13	13.923542996629
2	75	14	13.91007151508
2	77	15	13.964598868005
2	108	16	13.995233640105
2	110	17	13.952304350403
2	146	18	13.956911946491
2	148	19	11.503494614513
2	189	20	7.0034946145128
2	191	21	7.8970062485022
2	232	22	10.10483181514
2	234	23	11.990706169653
2	280	24	13.981089308816
2	282	25	13.965594365916
2	333	26	13.989059597438
2	335	27	13.956378436291
2	386	28	13.910982951869
2	388	29	13.88918493646
2	444	30	13.908189346099
2	446	31	13.983992603337
2	507	32	13.971500478752
2	509	33	13.873081948087
2	567	34	13.985133641064
2	569	35	13.886848415199
2	629	36	13.876205747321
2	631	37	13.967912819823
2	693	38	13.871047234884
2	695	39	13.89239756926
2	754	40	13.872267716837
2	756	41	13.999815066161
2	823	42	13.964707984752
2	825	43	13.906584702837
2	897	44	13.922364303169
2	899	45	13.929034490574
2	971	46	13.93922677479
2	973	47	13.924399639922
2	1047	48	13.96850544848
2	1049	49	13.986686690277
2	1128	50	13.935194088209
2	1130	51	13.930097484484
2	1325	52	13.948393711536
2	1327	53	13.882971800906
2	1388	54	13.87138918183
2	1389	55	13.933780807857
2	1455	56	13.942265776542
2	1456	57	13.95140511482
2	1525	58	13.886548467774
2	1526	59	13.920721456567
2	1597	60	13.906796863726
2	1598	61	13.917803910668
2	1674	62	13.924582225601
2	1675	63	13.959688465288
2	1751	64	13.957318032989
2	1752	65	13.940553226951
2	1836	66	13.998651232829
2	1837	67	13.999179182528
2	1926	68	13.886099785112
2	1927	69	13.881868150404
2	2016	70	13.887636745651
2	2017	71	13.978686858166
2	2108	72	11.380505228889
2	2109	73	6.8805052288885
2	2202	74	8.4946715655791
2	2203	75	10.462119500426
2	2296	76	12.535577293956
2	2297	77	13.991704303646
2	2392	78	13.884412832095
2	2393	79	13.939308186586
2	2496	80	13.975432322551
2	2497	81	13.918436620038
2	2603	82	13.942294309565
2	2604	83	13.978181636031
2	2718	84	13.992612206677
2	2719	85	13.973604970614
2	2838	86	13.905247902325
2	2839	87	13.91578970917
2	2955	88	13.942760436635
2	2956	89	13.903644982614
2	3077	90	13.957507387074
2	3078	91	13.990155698378
2	3207	92	13.951199041368
2	3208	93	13.920407453054
2	3337	94	13.913764986643
2	3338	95	13.919862737071
2	3469	96	13.927667983579
2	3470	97	13.987681491903
2	3606	98	13.949967818004
2	3607	99	13.923793041168
2	3746	100	13.956372545112
2	3747	101	13.893336640052
2	3888	102	13.920919575624
2	3889	103	13.944676370309
2	4032	104	13.937630747855
2	4033	105	13.901362465066
2	4176	106	13.954829121996
2	4177	107	13.995929163198
2	4322	108	13.882499602956
2	4323	109	13.910075074201
2	4473	110	13.894284862701
2	4474	111	13.913974985913
2	4624	112	13.871336730926
2	4625	113	13.935027445888
2	4783	114	13.877062078733
2	4784	115	13.981228611642
2	4947	116	13.873776447547
2	4948	117	13.92000553376
2	5114	118	13.94351971182
2	5115	119	13.968914518312
2	5286	120	13.898790548788
2	5287	121	13.952566244465
2	5460	122	13.902741317735
2	5461	123	13.901865296939
2	5634	124	13.981241170191
2	5635	125	13.8802250754
2	5810	126	13.893757563008
2	5811	127	13.915271799301
2	5994	128	13.929496678174
2	5995	129	13.878089943773
2	6178	130	13.993096217676
2	6179	131	13.875779724845
2	6373	132	13.913274697398
2	6374	133	13.919895130382
2	6573	134	13.88549514615
2	6574	135	13.879287964974
2	6773	136	13.94209516291
2	6774	137	13.887332082232
2	6975	138	13.946347575046
2	6976	139	13.932372469571
2	7185	140	13.922565494154
2	7186	141	13.941802534193
2	7395	142	13.953375940905
2	7396	143	13.932419939607
2	7755	144	13.946562061303
2	7756	145	13.880639836157
2	7758	146	13.945333202807
2	7759	147	13.879452574104
2	7760	148	13.994609436856
2	7761	149	13.989116368371
2	7762	150	13.909947179651
2	7763	151	13.943677626096
2	7764	152	13.920825543441
2	7765	153	13.967977306216
2	7766	154	13.87677123613
2	7767	155	13.876138116629
2	7768	156	13.917471618634
2	7769	157	13.994427491466
2	7770	158	13.974751957422
2	7771	159	13.976185514266
2	7772	160	13.998359918438
2	7773	161	13.959418661566
2	7774	162	13.990113809092
2	7775	163	13.948902800528
2	7776	164	13.974824944639
2	7777	165	13.982017293202
2	7778	166	13.942421763171
2	7779	167	13.953275428286
2	7780	168	13.932196781875
2	7781	169	13.996582278002
2	7782	170	13.965027879565
2	7783	171	13.994187416655
2	7784	172	13.979502878073
2	7785	173	13.971636267495
2	7786	174	13.95793872149
2	7787	175	13.896624165105
2	7788	176	13.997516584068
2	7789	177	13.958810173364
2	7790	178	13.994584853351
2	7791	179	13.937199156948
2	7792	180	13.947940933374
2	7793	181	13.94147206862
2	7794	182	13.921638553711
2	7795	183	13.962689000308
2	7796	184	13.930471157786
2	7797	185	13.879515518434
2	7798	186	13.926509896715
2	7799	187	13.974079824579
2	7800	188	13.941432711675
2	7801	189	13.962360876054
2	7802	190	13.870577896321
2	7803	191	13.979328471923
2	7804	192	13.918533257053
2	7805	193	13.878299675202
2	7806	194	13.89299565587
2	7807	195	13.919382929872
2	7808	196	13.91724806533
2	7809	197	13.944629625464
2	7810	198	13.942991133153
2	7811	199	13.945376214006
2	7812	200	13.874038293089
2	7813	201	13.949096935531
2	7814	202	13.879584385059
2	7815	203	13.92394813135
2	7816	204	13.893869304957
2	7817	205	13.87689322019
2	7818	206	13.940886610993
2	7819	207	13.912701709636
2	7820	208	13.90963869157
2	7821	209	13.892662656836
2	7822	210	13.997457728488
2	7823	211	13.984246307034
2	7824	212	13.927152170979
2	7825	213	13.913445711567
2	7826	214	13.997276320113
2	7827	215	13.955496828661
2	7828	216	13.895546112086
2	7829	217	13.99400754326
2	7830	218	13.975179014215
2	7831	219	13.963205627601
2	7832	220	13.908352265095
2	7833	221	13.951507218657
2	7834	222	13.924310795581
2	7835	223	13.886331674734
2	7836	224	13.894005736834
2	7837	225	13.995816687432
2	7838	226	13.922147489456
2	7839	227	13.975745892415
2	7840	228	13.95865954895
2	7841	229	13.90998331584
2	7842	230	13.909480444831
2	7843	231	13.871865440563
2	7844	232	13.909544334703
2	7845	233	13.970288497624
2	7846	234	13.884589887783
2	7847	235	13.906277810424
2	7848	236	13.938907213227
2	7849	237	13.912751343348
2	7850	238	13.895931187368
2	7851	239	13.919389053418
2	7852	240	13.902054803725
2	7853	241	13.883381347973
2	7854	242	13.888299550447
2	7855	243	13.92440442411
2	7856	244	13.994571242474
2	7857	245	13.924512335525
2	7858	246	13.877802509556
2	7859	247	13.873520000603
2	7860	248	13.952638451252
2	7861	249	10.878103289427
2	7862	250	6.3917741594348
2	7863	251	8.6205818565098
2	7864	252	10.649530350918
1	2	1	1578.4613427464
1	3	2	1579.5715045081
1	4	3	1581.5561876604
1	5	4	1586.4898643075
1	6	5	1592.7177137369
1	7	6	1600.2534592729
1	8	7	1609.1769437566
1	9	8	1619.0710908128
1	10	9	1629.0037637418
1	11	10	1638.9341008412
1	13	11	1649.1129276818
1	42	12	1661.0453354148
1	44	13	1673.5713017788
1	75	14	1682.4825292248
1	77	15	1691.8131453674
1	108	16	1695.5671389326
1	110	17	1697.3762977775
1	146	18	1698.7149431584
1	148	19	1699.9531973498
1	189	20	1700.8030368192
1	191	21	1701.4822415169
1	232	22	1709.488976148
1	234	23	1720.5600911779
1	280	24	1733.5392477075
1	282	25	1747.3162704222
1	333	26	1761.1584832035
1	335	27	1775.0702432813
1	386	28	1788.9649324082
1	388	29	1802.8657313576
1	444	30	1816.7641749373
1	446	31	1830.6712168986
1	507	32	1844.5682703312
1	509	33	1858.4757581847
1	567	34	1872.3796654344
1	569	35	1886.2682729438
1	629	36	1900.1617258992
1	631	37	1914.0672918586
1	693	38	1927.95593304
1	695	39	1941.8192613758
1	754	40	1955.7024557721
1	756	41	1969.5841215905
1	823	42	1983.4787444612
1	825	43	1997.3802024601
1	897	44	2011.2714909082
1	899	45	2025.1553793969
1	971	46	2039.0458765477
1	973	47	2052.9329446238
1	1047	48	2066.8462265795
1	1049	49	2080.7728807703
1	1128	50	2094.6498483503
1	1130	51	2107.3969092406
1	1325	52	2116.410831539
1	1327	53	2120.9360540062
1	1388	54	2120.5048353085
1	1389	55	2120.0344859883
1	1455	56	2119.5641121576
1	1456	57	2119.0944308629
1	1525	58	2118.6240558857
1	1526	59	2118.1536666537
1	1597	60	2117.6824006466
1	1598	61	2117.2121830918
1	1674	62	2116.7411177447
1	1675	63	2116.2712858524
1	1751	64	2115.8005333487
1	1752	65	2114.7955725584
1	1836	66	2112.8364102887
1	1837	67	2110.6440530941
1	1926	68	2106.1704403665
1	1927	69	2101.6975887315
1	2016	70	2096.6391956527
1	2017	71	2089.5697793076
1	2108	72	2082.9376931852
1	2109	73	2078.419863862
1	2202	74	2074.2936624894
1	2203	75	2067.3736373968
1	2296	76	2058.9511591028
1	2297	77	2049.1102951029
1	2392	78	2038.9478712408
1	2393	79	2028.7758523691
1	2496	80	2018.5996289225
1	2497	81	2008.4287304608
1	2603	82	1998.2495835368
1	2604	83	1988.0651562605
1	2718	84	1977.9077978879
1	2719	85	1968.1884612162
1	2838	86	1958.4779514531
1	2839	87	1948.7639992675
1	2955	88	1939.0549603878
1	2956	89	1929.3436047509
1	3077	90	1919.6330251861
1	3078	91	1909.910822208
1	3207	92	1900.1872029733
1	3208	93	1890.4840445621
1	3337	94	1880.7721485039
1	3338	95	1871.0513723353
1	3469	96	1861.0772373844
1	3470	97	1851.0875595547
1	3606	98	1841.096139106
1	3607	99	1831.1202287339
1	3746	100	1821.144089778
1	3747	101	1811.1678648908
1	3888	102	1801.1912086597
1	3889	103	1791.209887621
1	4032	104	1781.2482476477
1	4033	105	1771.277584523
1	4176	106	1761.5227281116
1	4177	107	1751.9260671614
1	4322	108	1742.3262181729
1	4323	109	1732.5843797447
1	4473	110	1722.8299162164
1	4474	111	1713.086449923
1	4624	112	1703.3381465003
1	4625	113	1693.5765614985
1	4783	114	1683.8264469272
1	4784	115	1674.0761652095
1	4947	116	1664.3203321155
1	4948	117	1654.5670952313
1	5114	118	1644.823870291
1	5115	119	1635.0678587342
1	5286	120	1625.336210235
1	5287	121	1615.5782095939
1	5460	122	1605.8165506711
1	5461	123	1596.0659276582
1	5634	124	1586.3064208571
1	5635	125	1576.5483956924
1	5810	126	1566.7923985375
1	5811	127	1557.0515624536
1	5994	128	1547.2834782302
1	5995	129	1537.3798678434
1	6178	130	1527.4649110558
1	6179	131	1517.5608619647
1	6373	132	1507.6508360393
1	6374	133	1497.737215165
1	6573	134	1488.4719928391
1	6574	135	1479.3458707612
1	6773	136	1470.2179115769
1	6774	137	1461.0960824257
1	6975	138	1451.9691580441
1	6976	139	1443.4222617447
1	7185	140	1435.3820641451
1	7186	141	1427.3446103698
1	7395	142	1419.3110376056
1	7396	143	1411.2766984925
1	7755	144	1404.4971290641
1	7756	145	1398.5528459009
1	7758	146	1392.5984726185
1	7759	147	1386.6349876709
1	7760	148	1382.2383795483
1	7761	149	1377.9442636594
1	7762	150	1373.6595358783
1	7763	151	1370.8648780324
1	7764	152	1368.6529144663
1	7765	153	1366.2626287099
1	7766	154	1363.9400776494
1	7767	155	1361.5025957329
1	7768	156	1359.1761908894
1	7769	157	1357.0937092975
1	7770	158	1355.3227530839
1	7771	159	1353.8606677661
1	7772	160	1352.4001931148
1	7773	161	1350.9373894874
1	7774	162	1349.4757576613
1	7775	163	1348.0170385102
1	7776	164	1346.554069207
1	7777	165	1345.0926451068
1	7778	166	1343.6316944081
1	7779	167	1342.169206298
1	7780	168	1340.8016817579
1	7781	169	1339.8476453517
1	7782	170	1338.88675889
1	7783	171	1337.7580269873
1	7784	172	1336.5687706266
1	7785	173	1335.3785909312
1	7786	174	1334.1870099697
1	7787	175	1332.9974499373
1	7788	176	1331.807691264
1	7789	177	1330.6170756808
1	7790	178	1329.4270746866
1	7791	179	1328.235561965
1	7792	180	1327.0451201648
1	7793	181	1325.8546584239
1	7794	182	1324.6631557113
1	7795	183	1323.4921323741
1	7796	184	1322.3833192652
1	7797	185	1321.2740472825
1	7798	186	1320.1657407004
1	7799	187	1319.044544382
1	7800	188	1318.2097313078
1	7801	189	1317.4871134162
1	7802	190	1316.2875415171
1	7803	191	1314.6404569708
1	7804	192	1312.7569282195
1	7805	193	1310.8746230919
1	7806	194	1312.2296878621
1	7807	195	1309.318593815
1	7808	196	1306.1411478268
1	7809	197	1302.9660233352
1	7810	198	1299.789149831
1	7811	199	1296.3137446754
1	7812	200	1292.5515033305
1	7813	201	1288.7923334399
1	7814	202	1284.9714143453
1	7815	203	1280.8085952131
1	7816	204	1276.6481711147
1	7817	205	1272.0269843545
1	7818	206	1266.8293056842
1	7819	207	1261.6324179135
1	7820	208	1256.4920189464
1	7821	209	1251.6446111212
1	7822	210	1246.7924843412
1	7823	211	1241.621282829
1	7824	212	1235.922153743
1	7825	213	1230.2174944794
1	7826	214	1224.5151331984
1	7827	215	1218.7807038762
1	7828	216	1218.998228698
1	7829	217	1231.5931130555
1	7830	218	1244.7946764436
1	7831	219	1257.9787944583
1	7832	220	1271.1796462424
1	7833	221	1284.3789763469
1	7834	222	1297.5799748562
1	7835	223	1310.7715928406
1	7836	224	1323.9813642986
1	7837	225	1337.1741084298
1	7838	226	1350.376634392
1	7839	227	1363.5687719872
1	7840	228	1376.7589407666
1	7841	229	1389.8083805079
1	7842	230	1402.8152361419
1	7843	231	1415.7949445834
1	7844	232	1428.7715739543
1	7845	233	1441.7532074079
1	7846	234	1454.7179528624
1	7847	235	1467.7475299882
1	7848	236	1480.7783373231
1	7849	237	1493.7928807372
1	7850	238	1505.0216565598
1	7851	239	1499.1603543786
1	7852	240	1493.1545708561
1	7853	241	1487.153926569
1	7854	242	1481.1516754813
1	7855	243	1475.3022421869
1	7856	244	1469.5472078808
1	7857	245	1463.6936589731
1	7858	246	1457.8323443765
1	7859	247	1451.6295216335
1	7860	248	1445.2875036169
1	7861	249	1439.4949099924
1	7862	250	1435.6688813828
1	7863	251	1431.865068363
1	7864	252	1423.5172555279
0	2	1	2414.8476884116
0	3	2	2411.8243290941
0	4	3	2407.1592244543
0	5	4	2402.288200066
0	6	5	2396.1394374635
0	7	6	2388.6993875942
0	8	7	2379.889221533
0	9	8	2370.1207192459
0	10	9	2360.3141803208
0	11	10	2350.5099475634
0	13	11	2341.0010868867
0	42	12	2334.5620136983
0	44	13	2337.6803779466
0	75	14	2348.3497968862
0	77	15	2358.6961674725
0	108	16	2371.6616533546
0	110	17	2385.4706804305
0	146	18	2399.3588350668
0	148	19	2412.4541998667
0	189	20	2421.4418196582
0	191	21	2428.417609864
0	232	22	2431.468930052
0	234	23	2433.1513403206
0	280	24	2435.1237040944
0	282	25	2437.2173147583
0	333	26	2438.6437980286
0	335	27	2439.5074353185
0	386	28	2440.517813261
0	388	29	2441.5286354903
0	444	30	2442.5392864447
0	446	31	2443.5505626462
0	507	32	2444.5611125134
0	509	33	2445.5724211388
0	567	34	2446.5834693939
0	569	35	2447.5934051003
0	629	36	2448.6036931522
0	631	37	2449.6148620235
0	693	38	2450.6248001783
0	695	39	2449.5880553933
0	754	40	2448.4757357414
0	756	41	2447.3635385588
0	823	42	2446.250303259
0	825	43	2445.1365203297
0	897	44	2444.0235521834
0	899	45	2442.9111769209
0	971	46	2441.7982721732
0	973	47	2440.6856421625
0	1047	48	2439.7151308154
0	1049	49	2438.7725309408
0	1128	50	2437.9056889905
0	1130	51	2432.8785054281
0	1325	52	2422.5273191113
0	1327	53	2409.439604845
0	1388	54	2395.517893619
0	1389	55	2381.592286239
0	1455	56	2367.6659531716
0	1456	57	2353.7601239877
0	1525	58	2339.8337569573
0	1526	59	2325.9069679289
0	1597	60	2311.9542202253
0	1598	61	2298.0325140053
0	1674	62	2284.0857072632
0	1675	63	2270.1754193477
0	1751	64	2256.2378749268
0	1752	65	2242.3725172955
0	1836	66	2228.5568932705
0	1837	67	2214.8035730832
0	1926	68	2201.6130456962
0	1927	69	2188.4247624045
0	2016	70	2175.5107078577
0	2017	71	2163.5018647154
0	2108	72	2152.2359160049
0	2109	73	2144.5614629743
0	2202	74	2138.2558950796
0	2203	75	2131.5955681979
0	2296	76	2123.7056670481
0	2297	77	2114.4870687368
0	2392	78	2104.967243704
0	2393	79	2095.4384303803
0	2496	80	2085.9056783495
0	2497	81	2076.3779145891
0	2603	82	2066.8424239405
0	2604	83	2057.3019868316
0	2718	84	2047.7591241145
0	2719	85	2037.7608240946
0	2838	86	2027.7716043318
0	2839	87	2017.7788433422
0	2955	88	2007.7911366803
0	2956	89	1997.8010467655
0	3077	90	1987.8117551972
0	3078	91	1977.8105066026
0	3207	92	1967.8078011014
0	3208	93	1957.8261436883
0	3337	94	1947.8354978411
0	3338	95	1937.8357170075
0	3469	96	1928.0943876163
0	3470	97	1918.3458898404
0	3606	98	1908.595691517
0	3607	99	1898.860628812
0	3746	100	1889.1253430418
0	3747	101	1879.3899734151
0	3888	102	1869.6541828585
0	3889	103	1859.9138401168
0	4032	104	1850.1927032812
0	4033	105	1840.4627611398
0	4176	106	1830.4943832025
0	4177	107	1820.3899234756
0	4322	108	1810.2821070175
0	4323	109	1800.3072354572
0	4473	110	1790.3538284535
0	4474	111	1780.4116429748
0	4624	112	1770.4645217122
0	4625	113	1760.5038479915
0	4783	114	1750.5548786415
0	4784	115	1740.6057387365
0	4947	116	1730.6509342341
0	4948	117	1720.6987788925
0	5114	118	1710.7568396883
0	5115	119	1700.8018530838
0	5286	120	1690.8717264237
0	5287	121	1680.914710167
0	5460	122	1670.9539610179
0	5461	123	1661.0044728565
0	5634	124	1651.0459197217
0	5635	125	1641.088878441
0	5810	126	1631.133906532
0	5811	127	1621.1944049059
0	5994	128	1611.4016974772
0	5995	129	1601.5908368229
0	6178	130	1591.7687360296
0	6179	131	1581.95744078
0	6373	132	1572.1402246708
0	6374	133	1562.3194472806
0	6573	134	1551.9221256066
0	6574	135	1541.3717610573
0	6773	136	1530.8192726985
0	6774	137	1520.27387104
0	6975	138	1509.7225789776
0	6976	139	1498.7459730455
0	7185	140	1487.3369203644
0	7186	141	1475.9317611735
0	7395	142	1464.5321091436
0	7396	143	1453.1313696638
0	7755	144	1440.9810547153
0	7756	145	1428.37280161
0	7758	146	1415.7431466343
0	7759	147	1403.0941651607
0	7760	148	1389.8238873205
0	7761	149	1376.5141631895
0	7762	150	1363.2335377458
0	7763	151	1349.6644354427
0	7764	152	1335.903612455
0	7765	153	1322.2844071649
0	7766	154	1308.5434932974
0	7767	155	1294.8376443418
0	7768	156	1281.0982487688
0	7769	157	1267.3308680035
0	7770	158	1253.5230468827
0	7771	159	1239.6590378741
0	7772	160	1225.8103017703
0	7773	161	1211.9394814936
0	7774	162	1198.079772646
0	7775	163	1184.2476828147
0	7776	164	1170.3752915382
0	7777	165	1156.5175524234
0	7778	166	1142.6643022699
0	7779	167	1128.7964738311
0	7780	168	1114.9195256233
0	7781	169	1101.0064947121
0	7782	170	1087.09277308
0	7783	171	1073.1940094858
0	7784	172	1059.3295235746
0	7785	173	1045.454273331
0	7786	174	1031.562686957
0	7787	175	1017.6946608142
0	7788	176	1003.8243188869
0	7789	177	989.94398700946
0	7790	178	976.07082008105
0	7791	179	962.18002925336
0	7792	180	948.30172335601
0	7793	181	934.42318499158
0	7794	182	920.53251085198
0	7795	183	906.64519986149
0	7796	184	892.7792307022
0	7797	185	878.90752320935
0	7798	186	865.04788829049
0	7799	187	851.15055305208
0	7800	188	837.24482767389
0	7801	189	823.33443326002
0	7802	190	809.46681111713
0	7803	191	795.63520164602
0	7804	192	781.83242588444
0	7805	193	768.03861702629
0	7806	194	753.56771098508
0	7807	195	739.93396619707
0	7808	196	726.35413698584
0	7809	197	712.78422943095
0	7810	198	699.20684691181
0	7811	199	685.71620551473
0	7812	200	672.26203093457
0	7813	201	658.81884020194
0	7814	202	645.40229339118
0	7815	203	632.07980250649
0	7816	204	618.76497657609
0	7817	205	605.5909563204
0	7818	206	592.65048638859
0	7819	207	579.71198553033
0	7820	208	566.73144802963
0	7821	209	553.6544718215
0	7822	210	540.56476516603
0	7823	211	527.5969918645
0	7824	212	514.86569167289
0	7825	213	502.12203760166
0	7826	214	489.38351699908
0	7827	215	476.68061928626
0	7828	216	464.31813278235
0	7829	217	458.54576970637
0	7830	218	454.06063902681
0	7831	219	449.58401126228
0	7832	220	445.10170159675
0	7833	221	440.61956127337
0	7834	222	436.13447082217
0	7835	223	431.65366202267
0	7836	224	427.16713215667
0	7837	225	422.68912263226
0	7838	226	418.21837646177
0	7839	227	413.75248787331
0	7840	228	409.2791097525
0	7841	229	404.38573488605
0	7842	230	399.31672242878
0	7843	231	394.25828973495
0	7844	232	389.20105701196
0	7845	233	384.1418741052
0	7846	234	379.08927276451
0	7847	235	374.12068298308
0	7848	236	369.16597165435
0	7849	237	364.21744436526
0	7850	238	357.65389608347
0	7851	239	345.01951615291
0	7852	240	332.44290033728
0	7853	241	319.87704651256
0	7854	242	307.30782791297
0	7855	243	294.66797556402
0	7856	244	281.96690633683
0	7857	245	269.34005897248
0	7858	246	256.69646003423
0	7859	247	244.22894317296
0	7860	248	231.80669483321
0	7861	249	220.46061597636
0	7862	250	212.966490697
0	7863	251	206.25397376029
0	7864	252	202.10292518465
vector 420 RSUExampleScenario.node[84].veinsmobility posx ETV
vector 421 RSUExampleScenario.node[84].veinsmobility posy ETV
vector 422 RSUExampleScenario.node[84].veinsmobility speed ETV
vector 423 RSUExampleScenario.node[84].veinsmobility acceleration ETV
vector 424 RSUExampleScenario.node[84].veinsmobility co2emission ETV
9	7	6	3.9274001426868
9	8	7	5.2041356246368
9	9	8	5.7574507674447
9	10	9	7.0006276784153
9	11	10	8.2432295261252
9	13	11	3.9110016848773
9	42	12	1.7792042638201
9	44	13	2.0579365757541
9	75	14	2.3818636967155
9	77	15	1.7037407999188
9	108	16	2.0152488537881
9	110	17	2.1655550639215
9	146	18	1.906797412239
9	148	19	2.2849654495652
9	189	20	1.9716653983805
9	191	21	0.973
9	232	22	0.973
9	234	23	0.973
9	280	24	2.2554772362628
9	282	25	5.6120472675651
9	333	26	7.5119842129131
9	335	27	8.4455276517466
9	386	28	3.3560730035355
9	388	29	1.8466200733259
9	444	30	2.0660268329645
9	446	31	2.2281549844786
9	507	32	1.9335288120447
9	509	33	1.9767670407741
9	567	34	1.9283950769156
9	569	35	2.0949799016024
9	629	36	1.9290667558988
9	631	37	2.3468857079218
9	693	38	1.8793040227889
9	695	39	1.8954681876561
9	754	40	2.2553467174174
9	756	41	1.7429567241042
9	823	42	2.0192482635441
9	825	43	2.1827359052182
9	897	44	2.0164367628106
9	899	45	2.1348602115454
9	971	46	2.0878872407227
9	973	47	1.8642059318509
9	1047	48	2.0401536442479
9	1049	49	1.9464315106901
9	1128	50	2.2632042711189
9	1130	51	1.851180617826
9	1325	52	2.2486511283506
9	1327	53	2.0047870143605
9	1388	54	2.1193583924862
9	1389	55	1.9065956504161
9	1455	56	1.8305118457369
9	1456	57	2.2544630998412
9	1525	58	1.9497933768092
9	1526	59	2.199742909699
9	1597	60	1.9416842431598
9	1598	61	2.0340583936544
9	1674	62	1.8947902862501
9	1675	63	2.3236156337703
9	1751	64	1.8116807487081
9	1752	65	2.1067187558746
9	1836	66	2.0440470145686
9	1837	67	1.9485115452067
9	1926	68	2.1878187851485
9	1927	69	1.6791237400594
9	2016	70	2.2755265645048
9	2017	71	2.0225291815531
9	2108	72	1.9399893034582
9	2109	73	2.0029455902709
9	2202	74	1.4663345211208
9	2203	75	0.973
9	2296	76	0.973
9	2297	77	2.0711335261948
9	2392	78	6.4152831024102
9	2393	79	7.8881081638602
9	2496	80	8.7525284671264
9	2497	81	1.815189301835
9	2603	82	2.1926999225795
9	2604	83	2.0363789456198
9	2718	84	2.2022797105907
9	2719	85	1.6943401481553
9	2838	86	2.3980130110749
9	2839	87	1.9363832529257
9	2955	88	2.1682681767827
9	2956	89	1.6918937064968
9	3077	90	2.1131931668759
9	3078	91	2.2104031609639
9	3207	92	1.7227981158715
9	3208	93	2.1979337916806
9	3337	94	2.0197021153789
9	3338	95	2.0391171435245
9	3469	96	2.2261991945464
9	3470	97	1.7515996111392
9	3606	98	2.2995223407801
9	3607	99	1.8008227620704
9	3746	100	2.1857101524767
9	3747	101	1.9087755896745
9	3888	102	2.0627447358658
9	3889	103	1.9851118107104
9	4032	104	2.1093420628985
9	4033	105	2.2129857683168
9	4176	106	1.8308220216017
9	4177	107	2.1444722311404
9	4322	108	2.0355784928867
9	4323	109	2.0225109202385
9	4473	110	1.8904941269999
9	4474	111	1.9609544694714
9	4624	112	2.1225900669388
9	4625	113	1.8719619172019
9	4783	114	2.2944565722334
9	4784	115	2.1139814038152
9	4947	116	2.0497258004765
9	4948	117	1.8214044611061
9	5114	118	2.1974299774128
9	5115	119	2.0587102346889
9	5286	120	1.7775142086521
9	5287	121	2.1897334323985
9	5460	122	1.996556277867
9	5461	123	1.8780334086171
9	5634	124	1.9486210960065
9	5635	125	2.3653409168875
9	5810	126	1.9000292435893
9	5811	127	2.0717212867176
9	5994	128	1.8445072379646
9	5995	129	2.1162534272185
9	6178	130	2.2776331997634
9	6179	131	1.7725872185708
9	6373	132	2.2912967597894
9	6374	133	1.8528600408083
9	6573	134	1.9330331343468
9	6574	135	2.0465755532814
9	6773	136	2.2659055273814
9	6774	137	1.8676913138819
9	6975	138	2.0910132406566
9	6976	139	2.0043570379106
9	7185	140	2.030793134949
9	7186	141	1.9423234639898
9	7395	142	1.927848582712
9	7396	143	2.2698294292933
9	7755	144	1.7770096234678
9	7756	145	2.3367194719381
9	7758	146	1.859703679116
9	7759	147	2.1330729430549
9	7760	148	2.1358660794021
9	7761	149	1.7570872917791
9	7762	150	2.2526062298388
9	7763	151	2.1288224415809
9	7764	152	1.9635057791053
9	7765	153	1.8895605130103
9	7766	154	2.2263741095757
9	7767	155	1.882075928944
9	7768	156	2.2532002763803
9	7769	157	1.8360167560027
9	7770	158	2.1534761844155
9	7771	159	1.8707748688179
9	7772	160	2.211812015765
9	7773	161	1.7071373030442
9	7774	162	2.0361644423435
9	7775	163	2.090897582556
9	7776	164	2.2242422079567
9	7777	165	1.8485453953928
9	7778	166	1.9435434161483
9	7779	167	2.2639487509947
9	7780	168	2.04134454436
9	7781	169	2.1980837882338
9	7782	170	1.7122954482887
9	7783	171	1.9617700101395
9	7784	172	2.2580571351396
9	7785	173	1.9464158018033
9	7786	174	2.2039698413109
9	7787	175	1.8283356700218
9	7788	176	1.9093046019252
9	7789	177	2.2496876104686
9	7790	178	1.9172335011079
9	7791	179	2.2031702198692
9	7792	180	1.9128046296068
9	7793	181	2.0741380357498
9	7794	182	2.206946044161
9	7795	183	1.6977101226333
9	7796	184	2.0710706900758
9	7797	185	2.1246940168337
9	7798	186	2.2740383306431
9	7799	187	1.8151068318442
9	7800	188	1.869098500666
9	7801	189	2.4129979409229
9	7802	190	1.7603412831536
9	7803	191	2.0733850188152
9	7804	192	2.1471488825316
9	7805	193	2.0174689976898
9	7806	194	1.8350922917858
9	7807	195	1.9898603202048
9	7808	196	2.2449202398961
9	7809	197	1.7834002454186
9	7810	198	2.3534778961154
9	7811	199	1.9263154075013
9	7812	200	1.9117406178101
9	7813	201	2.2153396623226
9	7814	202	2.1495808614158
9	7815	203	1.8519233670163
9	7816	204	1.7982110008827
9	7817	205	2.2778778856224
9	7818	206	2.1611597807434
9	7819	207	2.0511165726411
9	7820	208	1.6955796131478
9	7821	209	1.9973569401021
9	7822	210	2.4076150134145
9	7823	211	1.6459064172448
9	7824	212	2.1693475303698
9	7825	213	2.0103060408626
9	7826	214	2.1753267943563
9	7827	215	1.9402899071139
9	7828	216	1.890580111367
9	7829	217	2.1184459462784
9	7830	218	2.0161838066024
9	7831	219	2.3522199613807
9	7832	220	2.0244965247655
9	7833	221	2.0054810000144
9	7834	222	1.8747331035091
9	7835	223	1.884105168067
9	7836	224	2.3552330606887
9	7837	225	1.9025861064728
9	7838	226	2.1177541213211
9	7839	227	1.8327643103778
9	7840	228	2.0565288504906
9	7841	229	2.2417680412703
9	7842	230	1.8674707020891
9	7843	231	2.0072146071567
9	7844	232	2.2628442401779
9	7845	233	1.7601438708128
9	7846	234	2.038141983627
9	7847	235	2.0233157137119
9	7848	236	1.897370025797
9	7849	237	2.0100120941404
9	7850	238	2.2105380380186
9	7851	239	1.8580811952534
9	7852	240	2.2677238800809
9	7853	241	2.205852434029
9	7854	242	2.0061687324658
9	7855	243	1.9252849730664
9	7856	244	2.0469721261069
9	7857	245	2.0698305343494
9	7858	246	1.9658883555811
9	7859	247	2.0223060274946
9	7860	248	1.8851178340664
9	7861	249	2.2064066402525
9	7862	250	1.9789459055838
9	7863	251	1.9775833046122
9	7864	252	0.973
9	7865	253	0.973
9	7866	254	2.2039078310101
9	7867	255	6.0439799902434
8	7	6	1.7932460927567
8	8	7	1.9587017235276
8	9	8	1.7806746143266
8	10	9	1.8842620940111
8	11	10	1.9413380167005
8	13	11	0.5583961215709
8	42	12	-0.073857417434921
8	44	13	0.0092065779981212
8	75	14	0.10214026641101
8	77	15	-0.096765000070445
8	108	16	-0.0036033386224883
8	110	17	0.039975998615846
8	146	18	-0.036115438612178
8	148	19	0.074191348995083
8	189	20	-0.018364551486448
8	191	21	-0.84955461610103
8	232	22	-1.1580047743662
8	234	23	-4.4608324981877
8	280	24	0.38092674279862
8	282	25	1.7156944106473
8	333	26	2.0360211738362
8	335	27	1.9703013633797
8	386	28	0.39196811840698
8	388	29	-0.054819778876846
8	444	30	0.010270397982096
8	446	31	0.056614504742901
8	507	32	-0.029954661100637
8	509	33	-0.016613695521373
8	567	34	-0.030163104203529
8	569	35	0.018933158169965
8	629	36	-0.029659791311714
8	631	37	0.091685234303586
8	693	38	-0.045763628156855
8	695	39	-0.039857979963999
8	754	40	0.065247988859191
8	756	41	-0.08489584519295
8	823	42	-0.0022564603248618
8	825	43	0.045091817758511
8	897	44	-0.0043246553349299
8	899	45	0.029991914208512
8	971	46	0.015533079409506
8	973	47	-0.0495849183877
8	1047	48	0.0027827199501917
8	1049	49	-0.024452327373437
8	1128	50	0.067736270520836
8	1130	51	-0.053276539789513
8	1325	52	0.063070073074195
8	1327	53	-0.0090693579427903
8	1388	54	0.024193826443517
8	1389	55	-0.037865431425162
8	1455	56	-0.058954789221753
8	1456	57	0.065368110591081
8	1525	58	-0.024500538792926
8	1526	59	0.048295230567454
8	1597	60	-0.027506586005911
8	1598	61	-3.7945064249811e-05
8	1674	62	-0.040341942564119
8	1675	63	0.08445247764932
8	1751	64	-0.065610413609539
8	1752	65	0.021565600365866
8	1836	66	0.0028431761614058
8	1837	67	-0.024848260174041
8	1926	68	0.044910243332852
8	1927	69	-0.10373160347343
8	2016	70	0.072071757072118
8	2017	71	-0.0031103654555054
8	2108	72	-0.02690946418792
8	2109	73	-0.0079017184418628
8	2202	74	-0.16497366318824
8	2203	75	-1.6848926053673
8	2296	76	-4.4892687861132
8	2297	77	0.28405570139177
8	2392	78	1.997470962787
8	2393	79	2.0988350649318
8	2496	80	1.9988427420706
8	2497	81	-0.063318411561289
8	2603	82	0.04787723080255
8	2604	83	0.0012825704249551
8	2718	84	0.049021707940847
8	2719	85	-0.099405430622864
8	2838	86	0.10682315822458
8	2839	87	-0.029265006696805
8	2955	88	0.038380603131372
8	2956	89	-0.1004943326558
8	3077	90	0.024492987445557
8	3078	91	0.05169718524674
8	3207	92	-0.090917193812784
8	3208	93	0.049401447521522
8	3337	94	-0.0035681885946541
8	3338	95	0.0021494067646568
8	3469	96	0.055939720121678
8	3470	97	-0.082825279594399
8	3606	98	0.077868373056408
8	3607	99	-0.068378643156029
8	3746	100	0.044884284511209
8	3747	101	-0.036422044509091
8	3888	102	0.0091787743428728
8	3889	103	-0.013543945976998
8	4032	104	0.022761303887236
8	4033	105	0.051837298679166
8	4176	106	-0.059922826110851
8	4177	107	0.032420193073339
8	4322	108	6.4998678864114e-05
8	4323	109	-0.0037058353074837
8	4473	110	-0.041796183458063
8	4474	111	-0.020209220252001
8	4624	112	0.02716161247343
8	4625	113	-0.04625822901493
8	4783	114	0.07725084295962
8	4784	115	0.022868344553281
8	4947	116	0.003685471189673
8	4948	117	-0.062443528294096
8	5114	118	0.04799817603547
8	5115	119	0.0065934695675978
8	5286	120	-0.075014242276085
8	5287	121	0.046452402246651
8	5460	122	-0.010696762092412
8	5461	123	-0.044767391828353
8	5634	124	-0.023024488484953
8	5635	125	0.097962695134338
8	5810	126	-0.039184950522614
8	5811	127	0.011599588245154
8	5994	128	-0.054589124734047
8	5995	129	0.025782361356541
8	6178	130	0.071375757772476
8	6179	131	-0.076592239663006
8	6373	132	0.075470494809561
8	6374	133	-0.053231685482897
8	6573	134	-0.028540046415291
8	6574	135	0.0051941985101429
8	6773	136	0.068229565557559
8	6774	137	-0.048710520348978
8	6975	138	0.017288791297469
8	6976	139	-0.0082554838550273
8	7185	140	-0.00037175524979816
8	7186	141	-0.025977745337878
8	7395	142	-0.029464533214922
8	7396	143	0.070286848202812
8	7755	144	-0.074459361548069
8	7756	145	0.089626789095345
8	7758	146	-0.050767468290868
8	7759	147	0.029793044384569
8	7760	148	0.029658873495645
8	7761	149	-0.080846889601089
8	7762	150	0.064886637714226
8	7763	151	0.027203342730646
8	7764	152	-0.02123924333835
8	7765	153	-0.042065148605035
8	7766	154	0.056388453694527
8	7767	155	-0.044616339365021
8	7768	156	0.063685772472526
8	7769	157	-0.058470913642086
8	7770	158	0.03489453980932
8	7771	159	-0.047775566366035
8	7772	160	0.052072390380781
8	7773	161	-0.095519099792
8	7774	162	0.0027528130938297
8	7775	163	0.018523060043808
8	7776	164	0.056377461815718
8	7777	165	-0.053878671019337
8	7778	166	-0.024820306268522
8	7779	167	0.068539440759924
8	7780	168	0.0022496086521997
8	7781	169	0.047270130538383
8	7782	170	-0.09450829451438
8	7783	171	-0.019489140016958
8	7784	172	0.066708318581805
8	7785	173	-0.025263743156103
8	7786	174	0.049787310254761
8	7787	175	-0.060178024864291
8	7788	176	-0.035057701403275
8	7789	177	0.064438513617498
8	7790	178	-0.033552181762644
8	7791	179	0.050035941279495
8	7792	180	-0.03528433265863
8	7793	181	0.012400400063488
8	7794	182	0.050227913181299
8	7795	183	-0.098540701419116
8	7796	184	0.012603236748838
8	7797	185	0.027710167313925
8	7798	186	0.069723128527404
8	7799	187	-0.064639785478358
8	7800	188	-0.047288752582389
8	7801	189	0.11094750276767
8	7802	190	-0.080532332123257
8	7803	191	0.012407079783733
8	7804	192	0.033286373021546
8	7805	193	-0.0050955741596397
8	7806	194	-0.057795992724133
8	7807	195	-0.011264941240661
8	7808	196	0.062737738816068
8	7809	197	-0.072692720012274
8	7810	198	0.094222277051303
8	7811	199	-0.031727886800654
8	7812	200	-0.035088948525953
8	7813	201	0.053654024405404
8	7814	202	0.033026138977148
8	7815	203	-0.053809231240301
8	7816	204	-0.068066559904256
8	7817	205	0.072812334573829
8	7818	206	0.036862328168935
8	7819	207	0.0040789077593946
8	7820	208	-0.099106555955951
8	7821	209	-0.0086751932161846
8	7822	210	0.10977227102732
8	7823	211	-0.11367036009207
8	7824	212	0.041492751492187
8	7825	213	-0.0057586893532431
8	7826	214	0.042061331872828
8	7827	215	-0.027071745074354
8	7828	216	-0.040767153888009
8	7829	217	0.026477893651462
8	7830	218	-0.0039087180607016
8	7831	219	0.092903775048908
8	7832	220	-0.004109283587896
8	7833	221	-0.0094658904126845
8	7834	222	-0.046989164801779
8	7835	223	-0.043026627360378
8	7836	224	0.094147316361777
8	7837	225	-0.039031404280104
8	7838	226	0.02418797927443
8	7839	227	-0.058891605471727
8	7840	228	0.0075933524617007
8	7841	229	0.060683302844408
8	7842	230	-0.049059807069135
8	7843	231	-0.0072337963897731
8	7844	232	0.066575333077926
8	7845	233	-0.080497158213984
8	7846	234	0.0023338127601882
8	7847	235	-0.0020255623129195
8	7848	236	-0.038521039402113
8	7849	237	-0.0046962852147399
8	7850	238	0.053454564446584
8	7851	239	-0.050230301325211
8	7852	240	0.069801855704283
8	7853	241	0.049700538483448
8	7854	242	-0.0092333630449133
8	7855	243	-0.032325495297556
8	7856	244	0.0037485833559199
8	7857	245	0.010226305793038
8	7858	246	-0.020073762005195
8	7859	247	-0.0031918901205064
8	7860	248	-0.042849621281492
8	7861	249	0.051306789247318
8	7862	250	-0.015878503390121
8	7863	251	-0.015821667290293
8	7864	252	-1.9194850078961
8	7865	253	-4.4757420027497
8	7866	254	0.35229045206681
8	7867	255	1.8649760537082
7	6	5	4.0332649588119
7	7	6	5.8265110515686
7	8	7	7.7852127750962
7	9	8	9.5658873894228
7	10	9	11.450149483434
7	11	10	13.391487500134
7	13	11	13.949883621705
7	42	12	13.87602620427
7	44	13	13.885232782268
7	75	14	13.987373048679
7	77	15	13.890608048609
7	108	16	13.887004709987
7	110	17	13.926980708602
7	146	18	13.89086526999
7	148	19	13.965056618985
7	189	20	13.946692067499
7	191	21	13.097137451398
7	232	22	11.939132677032
7	234	23	7.4783001788439
7	280	24	7.8592269216425
7	282	25	9.5749213322898
7	333	26	11.610942506126
7	335	27	13.581243869506
7	386	28	13.973211987913
7	388	29	13.918392209036
7	444	30	13.928662607018
7	446	31	13.985277111761
7	507	32	13.95532245066
7	509	33	13.938708755139
7	567	34	13.908545650935
7	569	35	13.927478809105
7	629	36	13.897819017794
7	631	37	13.989504252097
7	693	38	13.94374062394
7	695	39	13.903882643976
7	754	40	13.969130632835
7	756	41	13.884234787642
7	823	42	13.881978327318
7	825	43	13.927070145076
7	897	44	13.922745489741
7	899	45	13.95273740395
7	971	46	13.968270483359
7	973	47	13.918685564972
7	1047	48	13.921468284922
7	1049	49	13.897015957548
7	1128	50	13.964752228069
7	1130	51	13.91147568828
7	1325	52	13.974545761354
7	1327	53	13.965476403411
7	1388	54	13.989670229855
7	1389	55	13.951804798429
7	1455	56	13.892850009208
7	1456	57	13.958218119799
7	1525	58	13.933717581006
7	1526	59	13.982012811573
7	1597	60	13.954506225567
7	1598	61	13.954468280503
7	1674	62	13.914126337939
7	1675	63	13.998578815588
7	1751	64	13.932968401979
7	1752	65	13.954534002345
7	1836	66	13.957377178506
7	1837	67	13.932528918332
7	1926	68	13.977439161665
7	1927	69	13.873707558191
7	2016	70	13.945779315263
7	2017	71	13.942668949808
7	2108	72	13.91575948562
7	2109	73	13.907857767178
7	2202	74	13.74288410399
7	2203	75	12.057991498623
7	2296	76	7.5687227125094
7	2297	77	7.8527784139012
7	2392	78	9.8502493766883
7	2393	79	11.94908444162
7	2496	80	13.947927183691
7	2497	81	13.884608772129
7	2603	82	13.932486002932
7	2604	83	13.933768573357
7	2718	84	13.982790281298
7	2719	85	13.883384850675
7	2838	86	13.990208008899
7	2839	87	13.960943002203
7	2955	88	13.999323605334
7	2956	89	13.898829272678
7	3077	90	13.923322260124
7	3078	91	13.97501944537
7	3207	92	13.884102251558
7	3208	93	13.933503699079
7	3337	94	13.929935510485
7	3338	95	13.932084917249
7	3469	96	13.988024637371
7	3470	97	13.905199357776
7	3606	98	13.983067730833
7	3607	99	13.914689087677
7	3746	100	13.959573372188
7	3747	101	13.923151327679
7	3888	102	13.932330102022
7	3889	103	13.918786156045
7	4032	104	13.941547459932
7	4033	105	13.993384758611
7	4176	106	13.9334619325
7	4177	107	13.965882125574
7	4322	108	13.965947124253
7	4323	109	13.962241288945
7	4473	110	13.920445105487
7	4474	111	13.900235885235
7	4624	112	13.927397497708
7	4625	113	13.881139268694
7	4783	114	13.958390111653
7	4784	115	13.981258456206
7	4947	116	13.984943927396
7	4948	117	13.922500399102
7	5114	118	13.970498575137
7	5115	119	13.977092044705
7	5286	120	13.902077802429
7	5287	121	13.948530204676
7	5460	122	13.937833442583
[...]
379	7856	244	0.973
379	7857	245	3.29497049892
379	7858	246	0.973
379	7859	247	6.5320979651874
379	7860	248	6.6240376518372
379	7861	249	7.267972002983
379	7862	250	6.76166935898
379	7863	251	2.0537387741953
379	7864	252	2.2115965227841
379	7865	253	1.9420439424059
379	7866	254	2.1216304691415
379	7867	255	2.0325015922518
379	7868	256	1.6640724585496
380	7841	229	2414.8800665784
380	7842	230	2411.9201338303
380	7843	231	2407.2836911085
380	7844	232	2402.5363739874
380	7845	233	2396.4967708925
380	7846	234	2389.0131935162
380	7847	235	2380.2278095502
380	7848	236	2370.4731594676
380	7849	237	2360.6886990168
380	7850	238	2350.9073698549
380	7851	239	2341.3606683854
380	7852	240	2334.6588965689
380	7853	241	2337.2255306802
380	7854	242	2347.9359291439
380	7855	243	2358.2758792423
380	7856	244	2371.1246683212
380	7857	245	2384.9129217225
380	7858	246	2397.5720150796
380	7859	247	2408.7873684323
380	7860	248	2419.0245876755
380	7861	249	2426.0414927136
380	7862	250	2431.0384508565
380	7863	251	2432.6433701647
380	7864	252	2434.5700443636
380	7865	253	2436.6607240811
380	7866	254	2438.3906652497
380	7867	255	2439.2426741164
380	7868	256	2440.2521797364
381	7841	229	1578.4494536519
381	7842	230	1579.5363255097
381	7843	231	1581.4301200872
381	7844	232	1586.2384983143
381	7845	233	1592.3557842011
381	7846	234	1599.935617106
381	7847	235	1608.8340007411
381	7848	236	1618.7141174218
381	7849	237	1628.6244278988
381	7850	238	1638.5315668108
381	7851	239	1648.6526073981
381	7852	240	1660.4618691718
381	7853	241	1673.2039852571
381	7854	242	1682.1092929281
381	7855	243	1691.4341189144
381	7856	244	1695.4868766293
381	7857	245	1697.3099120436
381	7858	246	1698.5459873965
381	7859	247	1699.6064739516
381	7860	248	1700.5744713936
381	7861	249	1701.0953425635
381	7862	250	1706.6562041529
381	7863	251	1717.2173892623
381	7864	252	1729.8958851555
381	7865	253	1743.6536207544
381	7866	254	1757.4995795954
381	7867	255	1771.4120280119
381	7868	256	1785.3119476289
382	7842	230	4.0758558492601
382	7843	231	5.8503255862888
382	7844	232	7.4799084096059
382	7845	233	9.5903411535692
382	7846	234	11.541634893001
382	7847	235	13.429091783343
382	7848	236	13.970627315587
382	7849	237	13.995080537137
382	7850	238	13.952144949455
382	7851	239	13.959537598216
382	7852	240	13.973757118627
382	7853	241	13.978839458141
382	7854	242	13.873482875316
382	7855	243	13.918452833355
382	7856	244	13.932445737584
382	7857	245	13.791808355085
382	7858	246	11.327726684033
382	7859	247	11.400509880479
382	7860	248	8.4479770962499
382	7861	249	7.4979770962499
382	7862	250	9.5244494200941
382	7863	251	11.666247126504
382	7864	252	13.67429089712
382	7865	253	13.902177864993
382	7866	254	13.940122775845
382	7867	255	13.957948090581
382	7868	256	13.954873899301
383	7843	231	1.7744697370287
383	7844	232	1.629582823317
383	7845	233	2.1104327439633
383	7846	234	1.951293739432
383	7847	235	1.8874568903423
383	7848	236	0.54153553224341
383	7849	237	0.02445322155021
383	7850	238	-0.042935587682296
383	7851	239	0.0073926487611615
383	7852	240	0.014219520410988
383	7853	241	0.0050823395140469
383	7854	242	-0.10535658282461
383	7855	243	0.044969958039001
383	7856	244	0.01399290422909
383	7857	245	-0.14063738249921
383	7858	246	-2.4640816710524
383	7859	247	0.072783196445734
383	7860	248	-2.9525327842287
383	7861	249	-0.95
383	7862	250	2.0264723238442
383	7863	251	2.1417977064103
383	7864	252	2.0080437706155
383	7865	253	0.22788696787313
383	7866	254	0.037944910852239
383	7867	255	0.017825314735527
383	7868	256	-0.0030741912801737
384	7843	231	3.9125925911238
384	7844	232	4.4470711471467
384	7845	233	6.5319070994961
384	7846	234	7.2363865997084
384	7847	235	8.0901298779509
384	7848	236	3.8591460199587
384	7849	237	2.1208193844927
384	7850	238	1.8895790725148
384	7851	239	2.0595749261538
384	7852	240	2.0840456091885
384	7853	241	2.0538010789214
384	7854	242	1.6736733994761
384	7855	243	2.1813548695854
384	7856	244	2.0789212880038
384	7857	245	1.5502089394177
384	7858	246	0.973
384	7859	247	1.9968158346485
384	7860	248	0.973
384	7861	249	0.973
384	7862	250	6.3008248651754
384	7863	251	7.8412628387685
384	7864	252	8.6233682236075
384	7865	253	2.7923703325064
384	7866	254	2.1601991708808
384	7867	255	2.0945036694422
384	7868	256	2.0238885729016
385	7844	232	2414.8729874805
385	7845	233	2412.0490653113
385	7846	234	2407.4230062768
385	7847	235	2402.4950387445
385	7848	236	2396.1440595248
385	7849	237	2388.4788846468
385	7850	238	2379.4144237913
385	7851	239	2369.6221355369
385	7852	240	2359.8537878839
385	7853	241	2350.0597212393
385	7854	242	2340.6009238011
385	7855	243	2334.4595406927
385	7856	244	2338.1754081573
385	7857	245	2348.8380338763
385	7858	246	2359.1914172721
385	7859	247	2372.3512750315
385	7860	248	2386.1662531043
385	7861	249	2398.8869325526
385	7862	250	2410.9194795197
385	7863	251	2420.4987561663
385	7864	252	2427.5607281899
385	7865	253	2431.3015997142
385	7866	254	2432.9297166975
385	7867	255	2434.8555837416
385	7868	256	2436.944923428
386	7844	232	1578.4520530598
386	7845	233	1579.4889825424
386	7846	234	1581.2890130142
386	7847	235	1586.2803652212
386	7848	236	1592.7130322251
386	7849	237	1600.4767983807
386	7850	238	1609.6578484587
386	7851	239	1619.5760874217
386	7852	240	1629.4700778546
386	7853	241	1639.3901180821
386	7854	242	1649.6251987144
386	7855	243	1661.6624676194
386	7856	244	1673.9710684437
386	7857	245	1682.9228335712
386	7858	246	1692.2597740414
386	7859	247	1695.6702155937
386	7860	248	1697.459086448
386	7861	249	1698.6703216247
386	7862	250	1699.8080792921
386	7863	251	1700.7138638692
386	7864	252	1701.2805593275
386	7865	253	1708.3878574418
386	7866	254	1719.1016950486
386	7867	255	1731.7748794518
386	7868	256	1745.5237969654
387	7845	233	3.7816718659894
387	7846	234	5.8936188353314
387	7847	235	7.9116684286687
387	7848	236	9.8325582704642
387	7849	237	11.796594429549
387	7850	238	13.841388659833
387	7851	239	13.959930496046
387	7852	240	13.87069706328
387	7853	241	13.994653580592
387	7854	242	13.990258737253
387	7855	243	13.962701571297
387	7856	244	13.951314258294
387	7857	245	13.954282725444
387	7858	246	13.956152422896
387	7859	247	13.956798013321
387	7860	248	13.992234598387
387	7861	249	12.167924756169
387	7862	250	12.029678153604
387	7863	251	7.597842267747
387	7864	252	7.880840410178
387	7865	253	9.7367713784147
387	7866	254	11.68040805479
387	7867	255	13.601140138342
387	7868	256	13.947011773651
388	7846	234	2.1119469693419
388	7847	235	2.0180495933373
388	7848	236	1.9208898417954
388	7849	237	1.9640361590846
388	7850	238	2.0447942302842
388	7851	239	0.11854183621288
388	7852	240	-0.089233432766049
388	7853	241	0.12395651731174
388	7854	242	-0.0043948433385221
388	7855	243	-0.02755716595566
388	7856	244	-0.011387313003652
388	7857	245	0.0029684671503496
388	7858	246	0.001869697452058
388	7859	247	0.00064559042453638
388	7860	248	0.035436585065909
388	7861	249	-1.8243098422179
388	7862	250	-0.13824660256464
388	7863	251	-4.431835885857
388	7864	252	0.28299814243102
388	7865	253	1.8559309682366
388	7866	254	1.9436366763758
388	7867	255	1.9207320835511
388	7868	256	0.3458716353099
389	7846	234	4.4129488767599
389	7847	235	5.3852469526111
389	7848	236	6.2239683069638
389	7849	237	7.414431854594
389	7850	238	8.8436506941153
389	7851	239	2.4335598171832
389	7852	240	1.7273582553876
389	7853	241	2.4563690083896
389	7854	242	2.0230310788759
389	7855	243	1.9422975894206
389	7856	244	1.9955764985525
389	7857	245	2.0441499412107
389	7858	246	2.0406467460277
389	7859	247	2.0365956380886
389	7860	248	2.1575481903118
389	7861	249	0.973
389	7862	250	1.4503317220689
389	7863	251	0.973
389	7864	252	2.0728809793622
389	7865	253	6.0200329460605
389	7866	254	7.2919712265623
389	7867	255	8.2944716987313
389	7868	256	3.1959781794163
390	7847	235	2414.8811737571
390	7848	236	2412.0246764143
390	7849	237	2407.4227508676
390	7850	238	2402.5044948545
390	7851	239	2396.2079437161
390	7852	240	2388.4468362964
390	7853	241	2379.7719564324
390	7854	242	2371.089919891
390	7855	243	2362.3857093953
390	7856	244	2353.7077090824
390	7857	245	2345.0165396362
390	7858	246	2337.1749967785
390	7859	247	2333.9144928063
390	7860	248	2340.0699665493
390	7861	249	2349.4932646473
390	7862	250	2358.6874593733
390	7863	251	2370.1320422553
390	7864	252	2382.3902139639
390	7865	253	2394.6915611374
390	7866	254	2407.014196453
390	7867	255	2417.9222705719
390	7868	256	2425.1748309268
391	7847	235	1578.4490471017
391	7848	236	1579.4979380183
391	7849	237	1581.2892717086
391	7850	238	1586.270787484
391	7851	239	1592.6483263411
391	7852	240	1600.5092589445
391	7853	241	1609.295717149
391	7854	242	1618.0894240811
391	7855	243	1626.9055901747
391	7856	244	1635.695208963
391	7857	245	1644.4981662696
391	7858	246	1654.0109185213
391	7859	247	1665.6413519122
391	7860	248	1675.5010382785
391	7861	249	1683.5137370927
391	7862	250	1691.8052921854
391	7863	251	1695.3385103811
391	7864	252	1697.0096535217
391	7865	253	1698.2736212416
391	7866	254	1699.4388086991
391	7867	255	1700.4702399503
391	7868	256	1701.0451572482
392	7848	236	3.8772497615504
392	7849	237	5.8500351696491
392	7850	238	7.9453170662612
392	7851	239	9.8266024051124
392	7852	240	12.093486809193
392	7853	241	12.41601926017
392	7854	242	12.369430473567
392	7855	243	12.348427626571
392	7856	244	12.349236816719
392	7857	245	12.348812173767
392	7858	246	12.39541581408
392	7859	247	12.398251767332
392	7860	248	12.342270883994
392	7861	249	12.345280222638
392	7862	250	12.331015174306
392	7863	251	12.354065987159
392	7864	252	12.405265676536
392	7865	253	12.316048733102
392	7866	254	12.394181889632
392	7867	255	9.0421183243262
392	7868	256	7.3821183243262
393	7849	237	1.9727854080987
393	7850	238	2.0952818966121
393	7851	239	1.8812853388512
393	7852	240	2.2668844040809
393	7853	241	0.32253245097655
393	7854	242	-0.046588786602952
393	7855	243	-0.021002846995835
393	7856	244	0.00080919014755665
393	7857	245	-0.00042464295169431
393	7858	246	0.046603640313261
393	7859	247	0.0028359532519229
393	7860	248	-0.055980883338488
393	7861	249	0.0030093386443344
393	7862	250	-0.014265048331582
393	7863	251	0.023050812853036
393	7864	252	0.051199689377098
393	7865	253	-0.089216943434439
393	7866	254	0.078133156530093
393	7867	255	-3.352063565306
393	7868	256	-1.66
394	7849	237	4.1920486607484
394	7850	238	5.5517074409243
394	7851	239	6.1269725131816
394	7852	240	8.4636838204025
394	7853	241	2.8508652209826
394	7854	242	1.7426509812693
394	7855	243	1.8171275717197
394	7856	244	1.8821129537653
394	7857	245	1.8784024735965
394	7858	246	2.0231102085536
394	7859	247	1.8926227366858
394	7860	248	1.7125599627498
394	7861	249	1.8883000561534
394	7862	250	1.8356641582854
394	7863	251	1.9487716846473
394	7864	252	2.03785641061
394	7865	253	1.6118939160645
394	7866	254	2.1171628853927
394	7867	255	0.973
394	7868	256	0.973
395	7850	238	2414.8819749599
395	7851	239	2411.9826624099
395	7852	240	2407.412059563
395	7853	241	2402.5948688654
395	7854	242	2396.3912932446
395	7855	243	2388.7482523057
395	7856	244	2379.746671966
395	7857	245	2369.9704729331
395	7858	246	2360.1815063587
395	7859	247	2350.3907428657
395	7860	248	2340.9119044432
395	7861	249	2334.5396184202
395	7862	250	2337.7740359575
395	7863	251	2348.4630364674
395	7864	252	2358.8056695795
395	7865	253	2371.8016123818
395	7866	254	2385.3047764431
395	7867	255	2397.8333368142
395	7868	256	2407.4609365019
396	7850	238	1578.4487529043
396	7851	239	1579.5133653414
396	7852	240	1581.3001005277
396	7853	241	1586.1792510618
396	7854	242	1592.4626185279
396	7855	243	1600.2039660523
396	7856	244	1609.3213268304
396	7857	245	1619.2232696284
396	7858	246	1629.1381441876
396	7859	247	1639.0548387775
396	7860	248	1649.2270950908
396	7861	249	1661.1802084697
396	7862	250	1673.6469362546
396	7863	251	1682.5846515158
396	7864	252	1691.9118971098
396	7865	253	1695.5880583869
396	7866	254	1697.3565515
396	7867	255	1698.570697112
396	7868	256	1699.4810509542
397	7851	239	3.8732012177889
397	7852	240	5.7849907465746
397	7853	241	7.7480271073642
397	7854	242	9.7552867252963
397	7855	243	11.790539318631
397	7856	244	13.590119518235
397	7857	245	13.873221299099
397	7858	246	13.901598633884
397	7859	247	13.911151803541
397	7860	248	13.903308608367
397	7861	249	13.972320392483
397	7862	250	13.982977948699
397	7863	251	13.985428017939
397	7864	252	13.926712985684
397	7865	253	13.836840048235
397	7866	254	13.525382800889
397	7867	255	11.194701961134
397	7868	256	9.1488076062274
398	7852	240	1.9117895287857
398	7853	241	1.9630363607896
398	7854	242	2.0072596179321
398	7855	243	2.0352525933343
398	7856	244	1.7995801996044
398	7857	245	0.28310178086381
398	7858	246	0.028377334785182
398	7859	247	0.0095531696570106
398	7860	248	-0.0078431951743561
398	7861	249	0.069011784116737
398	7862	250	0.010657556215302
398	7863	251	0.0024500692402949
398	7864	252	-0.058715032255277
398	7865	253	-0.089872937448387
398	7866	254	-0.31145724734639
398	7867	255	-2.3306808397546
398	7868	256	-2.0458943549069
399	7852	240	4.0723366347847
399	7853	241	5.1922607250252
399	7854	242	6.3854723568312
399	7855	243	7.6134031914957
399	7856	244	7.8914751847297
399	7857	245	2.9724431617378
399	7858	246	2.1238653697877
399	7859	247	2.0617938851933
399	7860	248	2.0026871126096
399	7861	249	2.2683972273872
399	7862	250	2.0730178836555
399	7863	251	2.0456119149286
399	7864	252	1.8342847385122
399	7865	253	1.7225196995673
399	7866	254	0.973
399	7867	255	0.973
399	7868	256	0.973
400	7853	241	2414.8876933872
400	7854	242	2412.0124165415
400	7855	243	2407.3730960689
400	7856	244	2402.5411189389
400	7857	245	2396.3199330221
400	7858	246	2388.6102025859
400	7859	247	2379.622216546
400	7860	248	2369.8463465369
400	7861	249	2360.0535047546
400	7862	250	2350.2624051868
400	7863	251	2340.7792780994
400	7864	252	2334.505431819
400	7865	253	2337.9397907662
400	7866	254	2348.6100865887
400	7867	255	2358.9563052013
400	7868	256	2372.0317361582
401	7853	241	1578.4466531277
401	7854	242	1579.5024397792
401	7855	243	1581.3395651793
401	7856	244	1586.2336923322
401	7857	245	1592.5348966019
401	7858	246	1600.3437914001
401	7859	247	1609.4473830247
401	7860	248	1619.3489925675
401	7861	249	1629.2677921783
401	7862	250	1639.1848271657
401	7863	251	1649.3968774527
401	7864	252	1661.3860934488
401	7865	253	1673.780793231
401	7866	254	1682.7172649978
401	7867	255	1692.0477440869
401	7868	256	1695.6224546237
402	7854	242	3.9593118368689
402	7855	243	5.9051732118003
402	7856	244	7.8451655734535
402	7857	245	9.7583954477677
402	7858	246	11.875741175885
402	7859	247	13.572430606645
402	7860	248	13.926917800079
402	7861	249	13.943343615446
402	7862	250	13.873050173514
402	7863	251	13.933089971761
402	7864	252	13.945953423728
402	7865	253	13.986553635581
402	7866	254	13.905256189154
402	7867	255	13.882089999076
402	7868	256	13.953576598174
403	7855	243	1.9458613749314
403	7856	244	1.9399923616531
403	7857	245	1.9132298743143
403	7858	246	2.1173457281175
403	7859	247	1.6966894307593
403	7860	248	0.35448719343457
403	7861	249	0.016425815366675
403	7862	250	-0.070293441931717
403	7863	251	0.060039798247162
403	7864	252	0.012863451966549
403	7865	253	0.040600211853162
403	7866	254	-0.08129744642647
403	7867	255	-0.023166190078481
403	7868	256	0.071486599098424
404	7855	243	4.1831344682272
404	7856	244	5.2009695946124
404	7857	245	6.1660715392389
404	7858	246	7.8975657626654
404	7859	247	7.5454948323604
404	7860	248	3.2211693869373
404	7861	249	2.0882458943346
404	7862	250	1.7908707162126
404	7863	251	2.2336088967872
404	7864	252	2.0765497520645
404	7865	253	2.1743228520611
404	7866	254	1.7567242873368
404	7867	255	1.9493043031213
404	7868	256	2.2744908621209
405	7856	244	2414.8643940542
405	7857	245	2412.0209282443
405	7858	246	2407.3829930649
405	7859	247	2402.4359512099
405	7860	248	2396.0867115757
405	7861	249	2388.3501467367
405	7862	250	2379.4893447952
405	7863	251	2370.549006645
405	7864	252	2361.6203981324
405	7865	253	2352.6918547299
405	7866	254	2343.7488109523
405	7867	255	2335.8297533009
405	7868	256	2334.0008960203
406	7856	244	1578.4552085213
406	7857	245	1579.4993143268
406	7858	246	1581.3295408851
406	7859	247	1586.340212753
406	7860	248	1592.7711177971
406	7861	249	1600.6071921485
406	7862	250	1609.5819638036
406	7863	251	1618.6372946799
406	7864	252	1627.6807450503
406	7865	253	1636.7241294729
406	7866	254	1645.7822007779
406	7867	255	1655.7330395496
406	7868	256	1668.1273976145
407	7857	245	3.8759531166408
407	7858	246	5.8618052004584
407	7859	247	7.9623139770123
407	7860	248	9.9074259361605
407	7861	249	11.946366308739
407	7862	250	12.742657085107
407	7863	251	12.760142530884
407	7864	252	12.748854765677
407	7865	253	12.751107996227
407	7866	254	12.752710701187
407	7867	255	12.744745890374
407	7868	256	12.646156026909
408	7858	246	1.9858520838176
408	7859	247	2.1005087765539
408	7860	248	1.9451119591482
408	7861	249	2.0389403725788
408	7862	250	0.79629077636778
408	7863	251	0.017485445777419
408	7864	252	-0.011287765207234
408	7865	253	0.0022532305493943
408	7866	254	0.0016027049603871
408	7867	255	-0.0079648108128456
408	7868	256	-0.098589863465168
409	7858	246	4.2167834904359
409	7859	247	5.5714381333691
409	7860	248	6.3220949120074
409	7861	249	7.7140533575573
409	7862	250	4.3612395945961
409	7863	251	1.9712488313162
409	7864	252	1.8817429047244
409	7865	253	1.923558693814
409	7866	254	1.9217097778691
409	7867	255	1.8915772503645
409	7868	256	1.6064066382496
410	7859	247	2414.8920990218
410	7860	248	2412.0438905394
410	7861	249	2407.4049746402
410	7862	250	2402.501593622
410	7863	251	2396.2342153107
410	7864	252	2388.6340314522
410	7865	253	2379.7069201723
410	7866	254	2369.9136889944
410	7867	255	2360.1247769694
410	7868	256	2350.3361266562
411	7859	247	1578.4450354017
411	7860	248	1579.4908826919
411	7861	249	1581.3072765777
411	7862	250	1586.273726033
411	7863	251	1592.6217168346
411	7864	252	1600.3196560415
411	7865	253	1609.3615899207
411	7866	254	1619.2807839355
411	7867	255	1629.195603244
411	7868	256	1639.1101574739
412	7860	248	3.8216958065719
412	7861	249	5.8737193879385
412	7862	250	7.8752673516019
412	7863	251	9.8435163385344
412	7864	252	11.613683202219
412	7865	253	13.668532447418
412	7866	254	13.917439915645
412	7867	255	13.883676642906
412	7868	256	13.995060635332
413	7861	249	2.0520235813665
413	7862	250	2.0015479636635
413	7863	251	1.9682489869324
413	7864	252	1.770166863685
413	7865	253	2.054849245199
413	7866	254	0.24890746822656
413	7867	255	-0.033763272739016
413	7868	256	0.11138399242656
414	7861	249	4.3168440778706
414	7862	250	5.3338396519567
414	7863	251	6.3422132271443
414	7864	252	6.7694646492608
414	7865	253	8.7741880964301
414	7866	254	2.8652680700213
414	7867	255	1.9139992541128
414	7868	256	2.4140181665504
415	7862	250	2414.8586254059
415	7863	251	2412.0453861913
415	7864	252	2407.419955294
415	7865	253	2402.6850799774
415	7866	254	2396.4727593336
415	7867	255	2388.7669966965
415	7868	256	2379.6851548431
416	7862	250	1578.4573267391
416	7863	251	1579.4903334957
416	7864	252	1581.2921032393
416	7865	253	1586.0878796335
416	7866	254	1592.3801046023
416	7867	255	1600.1849805666
416	7868	256	1609.3836352006
417	7863	251	3.8882583488826
417	7864	252	5.7740231995214
417	7865	253	7.5974731141235
417	7866	254	9.8580772930895
417	7867	255	11.871438150834
417	7868	256	13.649721446622
418	7864	252	1.8857648506388
418	7865	253	1.8234499146021
418	7866	254	2.260604178966
418	7867	255	2.0133608577447
418	7868	256	1.7782832957874
419	7864	252	4.0304384608545
419	7865	253	4.85573419877
419	7866	254	7.0447906721475
419	7867	255	7.5974918711911
419	7868	256	7.8532058464884
420	7865	253	2414.9372912525
420	7866	254	2412.1199324395
420	7867	255	2407.525395238
420	7868	256	2402.6518815428
421	7865	253	1578.4284410505
421	7866	254	1579.4629605031
421	7867	255	1581.1853071023
421	7868	256	1586.1215050742
422	7866	254	3.8737032484314
422	7867	255	5.8348689297242
422	7868	256	7.8400220861057
423	7867	255	1.9611656812928
423	7868	256	2.0051531563816
424	7867	255	4.1676232148403
424	7868	256	5.3213467809496
425	7868	256	2414.8770654745
426	7868	256	1578.4505556421

