version 2
run Default-0-20230830-17:54:52-19555
attr configname Default
attr datetime 20230830-17:54:52
attr experiment Default
attr inifile omnetpp.ini
attr iterationvars ""
attr iterationvarsf ""
attr measurement ""
attr network RSUExampleScenario
attr processid 19555
attr repetition 0
attr replication #0
attr resultdir results
attr runnumber 0
attr seedset 0
param *.playgroundSizeX 2500m
param *.playgroundSizeY 2500m
param *.playgroundSizeZ 50m
param *.annotations.draw true
param *.obstacles.obstacles "xmldoc(\"config.xml\", \"//AnalogueModel[@type='SimpleObstacleShadowing']/obstacles\")"
param *.manager.updateInterval 1s
param *.manager.host "\"localhost\""
param *.manager.port 9999
param *.manager.autoShutdown true
param *.manager.launchConfig "xmldoc(\"erlangen.launchd.xml\")"
param *.rsu[0].mobility.x 2000
param *.rsu[0].mobility.y 2000
param *.rsu[0].mobility.z 3
param *.rsu[*].applType "\"TraCIDemoRSU11p\""
param *.rsu[*].appl.headerLength "80 bit"
param *.rsu[*].appl.sendBeacons false
param *.rsu[*].appl.dataOnSch false
param *.rsu[*].appl.beaconInterval 1s
param *.rsu[*].appl.beaconUserPriority 7
param *.rsu[*].appl.dataUserPriority 5
param *.rsu[*].nic.phy80211p.antennaOffsetZ "0 m"
param *.connectionManager.sendDirect true
param *.connectionManager.maxInterfDist 2600m
param *.connectionManager.drawMaxIntfDist false
param *.**.nic.mac1609_4.useServiceChannel false
param *.**.nic.mac1609_4.txPower 20mW
param *.**.nic.mac1609_4.bitrate 6Mbps
param *.**.nic.phy80211p.minPowerLevel -110dBm
param *.**.nic.phy80211p.useNoiseFloor true
param *.**.nic.phy80211p.noiseFloor -98dBm
param *.**.nic.phy80211p.decider "xmldoc(\"config.xml\")"
param *.**.nic.phy80211p.analogueModels "xmldoc(\"config.xml\")"
param *.**.nic.phy80211p.usePropagationDelay true
param *.**.nic.phy80211p.antenna "xmldoc(\"antenna.xml\", \"/root/Antenna[@id='monopole']\")"
param *.node[*].nic.phy80211p.antennaOffsetY "0 m"
param *.node[*].nic.phy80211p.antennaOffsetZ "1.895 m"
param *.node[*].applType "\"TraCIDemo11p\""
param *.node[*].appl.headerLength "80 bit"
param *.node[*].appl.sendBeacons false
param *.node[*].appl.dataOnSch false
param *.node[*].appl.beaconInterval 1s
param *.node[*].veinsmobility.x 0
param *.node[*].veinsmobility.y 0
param *.node[*].veinsmobility.z 0
param *.node[*].veinsmobility.setHostSpeed false

vector 0 RSUExampleScenario.node[0].veinsmobility posx ETV
vector 1 RSUExampleScenario.node[0].veinsmobility posy ETV
vector 2 RSUExampleScenario.node[0].veinsmobility speed ETV
vector 3 RSUExampleScenario.node[0].veinsmobility acceleration ETV
vector 4 RSUExampleScenario.node[0].veinsmobility co2emission ETV
vector 5 RSUExampleScenario.node[1].veinsmobility posx ETV
vector 6 RSUExampleScenario.node[1].veinsmobility posy ETV
vector 7 RSUExampleScenario.node[1].veinsmobility speed ETV
vector 8 RSUExampleScenario.node[1].veinsmobility acceleration ETV
vector 9 RSUExampleScenario.node[1].veinsmobility co2emission ETV
vector 10 RSUExampleScenario.node[2].veinsmobility posx ETV
vector 11 RSUExampleScenario.node[2].veinsmobility posy ETV
vector 12 RSUExampleScenario.node[2].veinsmobility speed ETV
vector 13 RSUExampleScenario.node[2].veinsmobility acceleration ETV
vector 14 RSUExampleScenario.node[2].veinsmobility co2emission ETV
vector 15 RSUExampleScenario.node[3].veinsmobility posx ETV
vector 16 RSUExampleScenario.node[3].veinsmobility posy ETV
vector 17 RSUExampleScenario.node[3].veinsmobility speed ETV
vector 18 RSUExampleScenario.node[3].veinsmobility acceleration ETV
vector 19 RSUExampleScenario.node[3].veinsmobility co2emission ETV
vector 20 RSUExampleScenario.node[4].veinsmobility posx ETV
vector 21 RSUExampleScenario.node[4].veinsmobility posy ETV
vector 22 RSUExampleScenario.node[4].veinsmobility speed ETV
vector 23 RSUExampleScenario.node[4].veinsmobility acceleration ETV
vector 24 RSUExampleScenario.node[4].veinsmobility co2emission ETV
vector 25 RSUExampleScenario.node[5].veinsmobility posx ETV
vector 26 RSUExampleScenario.node[5].veinsmobility posy ETV
vector 27 RSUExampleScenario.node[5].veinsmobility speed ETV
vector 28 RSUExampleScenario.node[5].veinsmobility acceleration ETV
vector 29 RSUExampleScenario.node[5].veinsmobility co2emission ETV
vector 30 RSUExampleScenario.node[6].veinsmobility posx ETV
vector 31 RSUExampleScenario.node[6].veinsmobility posy ETV
vector 32 RSUExampleScenario.node[6].veinsmobility speed ETV
vector 33 RSUExampleScenario.node[6].veinsmobility acceleration ETV
vector 34 RSUExampleScenario.node[6].veinsmobility co2emission ETV
vector 35 RSUExampleScenario.node[7].veinsmobility posx ETV
vector 36 RSUExampleScenario.node[7].veinsmobility posy ETV
vector 37 RSUExampleScenario.node[7].veinsmobility speed ETV
vector 38 RSUExampleScenario.node[7].veinsmobility acceleration ETV
vector 39 RSUExampleScenario.node[7].veinsmobility co2emission ETV
vector 40 RSUExampleScenario.node[8].veinsmobility posx ETV
vector 41 RSUExampleScenario.node[8].veinsmobility posy ETV
vector 42 RSUExampleScenario.node[8].veinsmobility speed ETV
vector 43 RSUExampleScenario.node[8].veinsmobility acceleration ETV
vector 44 RSUExampleScenario.node[8].veinsmobility co2emission ETV
vector 45 RSUExampleScenario.node[9].veinsmobility posx ETV
vector 46 RSUExampleScenario.node[9].veinsmobility posy ETV
vector 47 RSUExampleScenario.node[9].veinsmobility speed ETV
vector 48 RSUExampleScenario.node[9].veinsmobility acceleration ETV
vector 49 RSUExampleScenario.node[9].veinsmobility co2emission ETV
vector 50 RSUExampleScenario.node[10].veinsmobility posx ETV
vector 51 RSUExampleScenario.node[10].veinsmobility posy ETV
vector 52 RSUExampleScenario.node[10].veinsmobility speed ETV
vector 53 RSUExampleScenario.node[10].veinsmobility acceleration ETV
vector 54 RSUExampleScenario.node[10].veinsmobility co2emission ETV
vector 55 RSUExampleScenario.node[11].veinsmobility posx ETV
vector 56 RSUExampleScenario.node[11].veinsmobility posy ETV
vector 57 RSUExampleScenario.node[11].veinsmobility speed ETV
vector 58 RSUExampleScenario.node[11].veinsmobility acceleration ETV
vector 59 RSUExampleScenario.node[11].veinsmobility co2emission ETV
vector 60 RSUExampleScenario.node[12].veinsmobility posx ETV
vector 61 RSUExampleScenario.node[12].veinsmobility posy ETV
vector 62 RSUExampleScenario.node[12].veinsmobility speed ETV
vector 63 RSUExampleScenario.node[12].veinsmobility acceleration ETV
vector 64 RSUExampleScenario.node[12].veinsmobility co2emission ETV
vector 65 RSUExampleScenario.node[13].veinsmobility posx ETV
vector 66 RSUExampleScenario.node[13].veinsmobility posy ETV
vector 67 RSUExampleScenario.node[13].veinsmobility speed ETV
vector 68 RSUExampleScenario.node[13].veinsmobility acceleration ETV
vector 69 RSUExampleScenario.node[13].veinsmobility co2emission ETV
vector 70 RSUExampleScenario.node[14].veinsmobility posx ETV
vector 71 RSUExampleScenario.node[14].veinsmobility posy ETV
vector 72 RSUExampleScenario.node[14].veinsmobility speed ETV
vector 73 RSUExampleScenario.node[14].veinsmobility acceleration ETV
vector 74 RSUExampleScenario.node[14].veinsmobility co2emission ETV
vector 75 RSUExampleScenario.node[15].veinsmobility posx ETV
vector 76 RSUExampleScenario.node[15].veinsmobility posy ETV
vector 77 RSUExampleScenario.node[15].veinsmobility speed ETV
vector 78 RSUExampleScenario.node[15].veinsmobility acceleration ETV
vector 79 RSUExampleScenario.node[15].veinsmobility co2emission ETV
vector 80 RSUExampleScenario.node[16].veinsmobility posx ETV
vector 81 RSUExampleScenario.node[16].veinsmobility posy ETV
vector 82 RSUExampleScenario.node[16].veinsmobility speed ETV
vector 83 RSUExampleScenario.node[16].veinsmobility acceleration ETV
vector 84 RSUExampleScenario.node[16].veinsmobility co2emission ETV
vector 85 RSUExampleScenario.node[17].veinsmobility posx ETV
vector 86 RSUExampleScenario.node[17].veinsmobility posy ETV
vector 87 RSUExampleScenario.node[17].veinsmobility speed ETV
vector 88 RSUExampleScenario.node[17].veinsmobility acceleration ETV
vector 89 RSUExampleScenario.node[17].veinsmobility co2emission ETV
vector 90 RSUExampleScenario.node[18].veinsmobility posx ETV
vector 91 RSUExampleScenario.node[18].veinsmobility posy ETV
vector 92 RSUExampleScenario.node[18].veinsmobility speed ETV
vector 93 RSUExampleScenario.node[18].veinsmobility acceleration ETV
vector 94 RSUExampleScenario.node[18].veinsmobility co2emission ETV
vector 95 RSUExampleScenario.node[19].veinsmobility posx ETV
vector 96 RSUExampleScenario.node[19].veinsmobility posy ETV
vector 97 RSUExampleScenario.node[19].veinsmobility speed ETV
vector 98 RSUExampleScenario.node[19].veinsmobility acceleration ETV
vector 99 RSUExampleScenario.node[19].veinsmobility co2emission ETV
vector 100 RSUExampleScenario.node[20].veinsmobility posx ETV
vector 101 RSUExampleScenario.node[20].veinsmobility posy ETV
vector 102 RSUExampleScenario.node[20].veinsmobility speed ETV
vector 103 RSUExampleScenario.node[20].veinsmobility acceleration ETV
vector 104 RSUExampleScenario.node[20].veinsmobility co2emission ETV
vector 105 RSUExampleScenario.node[21].veinsmobility posx ETV
vector 106 RSUExampleScenario.node[21].veinsmobility posy ETV
vector 107 RSUExampleScenario.node[21].veinsmobility speed ETV
vector 108 RSUExampleScenario.node[21].veinsmobility acceleration ETV
vector 109 RSUExampleScenario.node[21].veinsmobility co2emission ETV
vector 110 RSUExampleScenario.node[22].veinsmobility posx ETV
vector 111 RSUExampleScenario.node[22].veinsmobility posy ETV
vector 112 RSUExampleScenario.node[22].veinsmobility speed ETV
vector 113 RSUExampleScenario.node[22].veinsmobility acceleration ETV
vector 114 RSUExampleScenario.node[22].veinsmobility co2emission ETV
vector 115 RSUExampleScenario.node[23].veinsmobility posx ETV
vector 116 RSUExampleScenario.node[23].veinsmobility posy ETV
vector 117 RSUExampleScenario.node[23].veinsmobility speed ETV
vector 118 RSUExampleScenario.node[23].veinsmobility acceleration ETV
vector 119 RSUExampleScenario.node[23].veinsmobility co2emission ETV
vector 120 RSUExampleScenario.node[24].veinsmobility posx ETV
vector 121 RSUExampleScenario.node[24].veinsmobility posy ETV
vector 122 RSUExampleScenario.node[24].veinsmobility speed ETV
vector 123 RSUExampleScenario.node[24].veinsmobility acceleration ETV
vector 124 RSUExampleScenario.node[24].veinsmobility co2emission ETV
vector 125 RSUExampleScenario.node[25].veinsmobility posx ETV
vector 126 RSUExampleScenario.node[25].veinsmobility posy ETV
vector 127 RSUExampleScenario.node[25].veinsmobility speed ETV
vector 128 RSUExampleScenario.node[25].veinsmobility acceleration ETV
vector 129 RSUExampleScenario.node[25].veinsmobility co2emission ETV
vector 130 RSUExampleScenario.node[26].veinsmobility posx ETV
vector 131 RSUExampleScenario.node[26].veinsmobility posy ETV
vector 132 RSUExampleScenario.node[26].veinsmobility speed ETV
vector 133 RSUExampleScenario.node[26].veinsmobility acceleration ETV
vector 134 RSUExampleScenario.node[26].veinsmobility co2emission ETV
vector 135 RSUExampleScenario.node[27].veinsmobility posx ETV
vector 136 RSUExampleScenario.node[27].veinsmobility posy ETV
vector 137 RSUExampleScenario.node[27].veinsmobility speed ETV
vector 138 RSUExampleScenario.node[27].veinsmobility acceleration ETV
vector 139 RSUExampleScenario.node[27].veinsmobility co2emission ETV
vector 140 RSUExampleScenario.node[28].veinsmobility posx ETV
vector 141 RSUExampleScenario.node[28].veinsmobility posy ETV
vector 142 RSUExampleScenario.node[28].veinsmobility speed ETV
vector 143 RSUExampleScenario.node[28].veinsmobility acceleration ETV
vector 144 RSUExampleScenario.node[28].veinsmobility co2emission ETV
vector 145 RSUExampleScenario.node[29].veinsmobility posx ETV
vector 146 RSUExampleScenario.node[29].veinsmobility posy ETV
vector 147 RSUExampleScenario.node[29].veinsmobility speed ETV
vector 148 RSUExampleScenario.node[29].veinsmobility acceleration ETV
vector 149 RSUExampleScenario.node[29].veinsmobility co2emission ETV
vector 150 RSUExampleScenario.node[30].veinsmobility posx ETV
vector 151 RSUExampleScenario.node[30].veinsmobility posy ETV
vector 152 RSUExampleScenario.node[30].veinsmobility speed ETV
vector 153 RSUExampleScenario.node[30].veinsmobility acceleration ETV
vector 154 RSUExampleScenario.node[30].veinsmobility co2emission ETV
vector 155 RSUExampleScenario.node[31].veinsmobility posx ETV
vector 156 RSUExampleScenario.node[31].veinsmobility posy ETV
vector 157 RSUExampleScenario.node[31].veinsmobility speed ETV
vector 158 RSUExampleScenario.node[31].veinsmobility acceleration ETV
vector 159 RSUExampleScenario.node[31].veinsmobility co2emission ETV
vector 160 RSUExampleScenario.node[32].veinsmobility posx ETV
vector 161 RSUExampleScenario.node[32].veinsmobility posy ETV
vector 162 RSUExampleScenario.node[32].veinsmobility speed ETV
vector 163 RSUExampleScenario.node[32].veinsmobility acceleration ETV
vector 164 RSUExampleScenario.node[32].veinsmobility co2emission ETV
vector 165 RSUExampleScenario.node[33].veinsmobility posx ETV
vector 166 RSUExampleScenario.node[33].veinsmobility posy ETV
0	2	1	2414.8476884116
0	4	2	2411.8243290941
0	18	3	2407.1592244543
0	20	4	2402.288200066
0	39	5	2396.1394374635
0	41	6	2388.6993875942
0	60	7	2379.889221533
0	62	8	2370.1207192459
0	86	9	2360.3141803208
0	88	10	2350.5099475634
0	118	11	2341.0010868867
0	120	12	2334.5620136983
0	150	13	2337.6803779466
0	152	14	2348.3497968862
0	184	15	2358.6961674725
0	186	16	2371.6616533546
0	220	17	2385.4706804305
0	222	18	2399.3588350668
0	257	19	2412.4541998667
0	259	20	2421.4418196582
0	296	21	2428.417609864
0	298	22	2431.468930052
0	336	23	2433.1513403206
0	338	24	2435.1237040944
0	376	25	2437.2173147583
0	378	26	2438.6437980286
0	418	27	2439.5074353185
0	420	28	2440.517813261
0	462	29	2441.5286354903
0	464	30	2442.5392864447
0	507	31	2443.5505626462
0	509	32	2444.5611125134
0	554	33	2445.5724211388
0	556	34	2446.5834693939
0	605	35	2447.5934051003
0	607	36	2448.6036931522
0	654	37	2449.6148620235
0	656	38	2450.6248001783
0	704	39	2449.5880553933
0	706	40	2448.4757357414
0	756	41	2447.3635385588
0	758	42	2446.250303259
0	808	43	2445.1365203297
0	810	44	2444.0235521834
0	863	45	2442.9111769209
0	865	46	2441.7982721732
0	922	47	2440.6856421625
0	924	48	2439.7151308154
0	978	49	2438.7725309408
0	980	50	2437.9056889905
0	1036	51	2432.8785054281
0	1038	52	2422.5273191113
0	1101	53	2409.439604845
0	1103	54	2395.517893619
0	1169	55	2381.592286239
0	1171	56	2367.6659531716
0	1238	57	2353.7601239877
0	1240	58	2339.8337569573
0	1314	59	2325.9069679289
0	1316	60	2311.9542202253
0	1394	61	2298.0325140053
0	1396	62	2284.0857072632
0	1476	63	2270.1754193477
0	1478	64	2256.2378749268
0	1568	65	2242.3725172955
0	1570	66	2228.5568932705
0	1664	67	2214.8035730832
0	1666	68	2201.6130456962
0	1762	69	2188.4247624045
0	1764	70	2175.5107078577
0	1866	71	2163.5018647154
0	1868	72	2152.2359160049
0	1967	73	2144.5614629743
0	1969	74	2138.2558950796
0	2069	75	2131.5955681979
0	2071	76	2123.7056670481
0	2176	77	2114.4870687368
0	2178	78	2104.967243704
0	2284	79	2095.4384303803
0	2286	80	2085.9056783495
0	2397	81	2076.3779145891
0	2399	82	2066.8424239405
0	2525	83	2057.3019868316
0	2527	84	2047.7591241145
0	2657	85	2037.7608240946
0	2659	86	2027.7716043318
0	2788	87	2017.7788433422
0	2790	88	2007.7911366803
0	2924	89	1997.8010467655
0	2926	90	1987.8117551972
0	3063	91	1977.8105066026
0	3065	92	1967.8078011014
0	3205	93	1957.8261436883
0	3207	94	1947.8354978411
0	3353	95	1937.8357170075
0	3355	96	1928.0943876163
0	3506	97	1918.3458898404
0	3508	98	1908.595691517
0	3660	99	1898.860628812
0	3662	100	1889.1253430418
1	2	1	1578.4613427464
1	4	2	1579.5715045081
1	18	3	1581.5561876604
1	20	4	1586.4898643075
1	39	5	1592.7177137369
1	41	6	1600.2534592729
1	60	7	1609.1769437566
1	62	8	1619.0710908128
1	86	9	1629.0037637418
1	88	10	1638.9341008412
1	118	11	1649.1129276818
1	120	12	1661.0453354148
1	150	13	1673.5713017788
1	152	14	1682.4825292248
1	184	15	1691.8131453674
1	186	16	1695.5671389326
1	220	17	1697.3762977775
1	222	18	1698.7149431584
1	257	19	1699.9531973498
1	259	20	1700.8030368192
1	296	21	1701.4822415169
1	298	22	1709.488976148
1	336	23	1720.5600911779
1	338	24	1733.5392477075
1	376	25	1747.3162704222
1	378	26	1761.1584832035
1	418	27	1775.0702432813
1	420	28	1788.9649324082
1	462	29	1802.8657313576
1	464	30	1816.7641749373
1	507	31	1830.6712168986
1	509	32	1844.5682703312
1	554	33	1858.4757581847
1	556	34	1872.3796654344
1	605	35	1886.2682729438
1	607	36	1900.1617258992
1	654	37	1914.0672918586
1	656	38	1927.95593304
1	704	39	1941.8192613758
1	706	40	1955.7024557721
1	756	41	1969.5841215905
1	758	42	1983.4787444612
1	808	43	1997.3802024601
1	810	44	2011.2714909082
1	863	45	2025.1553793969
1	865	46	2039.0458765477
1	922	47	2052.9329446238
1	924	48	2066.8462265795
1	978	49	2080.7728807703
1	980	50	2094.6498483503
1	1036	51	2107.3969092406
1	1038	52	2116.410831539
1	1101	53	2120.9360540062
1	1103	54	2120.5048353085
1	1169	55	2120.0344859883
1	1171	56	2119.5641121576
1	1238	57	2119.0944308629
1	1240	58	2118.6240558857
1	1314	59	2118.1536666537
1	1316	60	2117.6824006466
1	1394	61	2117.2121830918
1	1396	62	2116.7411177447
1	1476	63	2116.2712858524
1	1478	64	2115.8005333487
1	1568	65	2114.7955725584
1	1570	66	2112.8364102887
1	1664	67	2110.6440530941
1	1666	68	2106.1704403665
1	1762	69	2101.6975887315
1	1764	70	2096.6391956527
1	1866	71	2089.5697793076
1	1868	72	2082.9376931852
1	1967	73	2078.419863862
1	1969	74	2074.2936624894
1	2069	75	2067.3736373968
1	2071	76	2058.9511591028
1	2176	77	2049.1102951029
1	2178	78	2038.9478712408
1	2284	79	2028.7758523691
1	2286	80	2018.5996289225
1	2397	81	2008.4287304608
1	2399	82	1998.2495835368
1	2525	83	1988.0651562605
1	2527	84	1977.9077978879
1	2657	85	1968.1884612162
1	2659	86	1958.4779514531
1	2788	87	1948.7639992675
1	2790	88	1939.0549603878
1	2924	89	1929.3436047509
1	2926	90	1919.6330251861
1	3063	91	1909.910822208
1	3065	92	1900.1872029733
1	3205	93	1890.4840445621
1	3207	94	1880.7721485039
1	3353	95	1871.0513723353
1	3355	96	1861.0772373844
1	3506	97	1851.0875595547
1	3508	98	1841.096139106
1	3660	99	1831.1202287339
1	3662	100	1821.144089778
2	4	2	4.1061966058897
2	18	3	6.0195495591482
2	20	4	7.7148368984793
2	39	5	9.5879868385225
2	41	6	11.391389363371
2	60	7	13.513839789145
2	62	8	13.99235115225
2	86	9	13.890224446259
2	88	10	13.976677174468
2	118	11	13.994826577434
2	120	12	13.923680325528
2	150	13	13.923542996629
2	152	14	13.91007151508
2	184	15	13.964598868005
2	186	16	13.995233640105
2	220	17	13.952304350403
2	222	18	13.956911946491
2	257	19	11.503494614513
2	259	20	7.0034946145128
2	296	21	7.8970062485022
2	298	22	10.10483181514
2	336	23	11.990706169653
2	338	24	13.981089308816
2	376	25	13.965594365916
2	378	26	13.989059597438
2	418	27	13.956378436291
2	420	28	13.910982951869
2	462	29	13.88918493646
2	464	30	13.908189346099
2	507	31	13.983992603337
2	509	32	13.971500478752
2	554	33	13.873081948087
2	556	34	13.985133641064
2	605	35	13.886848415199
2	607	36	13.876205747321
2	654	37	13.967912819823
2	656	38	13.871047234884
2	704	39	13.89239756926
2	706	40	13.872267716837
2	756	41	13.999815066161
2	758	42	13.964707984752
2	808	43	13.906584702837
2	810	44	13.922364303169
2	863	45	13.929034490574
2	865	46	13.93922677479
2	922	47	13.924399639922
2	924	48	13.96850544848
2	978	49	13.986686690277
2	980	50	13.935194088209
2	1036	51	13.930097484484
2	1038	52	13.948393711536
2	1101	53	13.882971800906
2	1103	54	13.87138918183
2	1169	55	13.933780807857
2	1171	56	13.942265776542
2	1238	57	13.95140511482
2	1240	58	13.886548467774
2	1314	59	13.920721456567
2	1316	60	13.906796863726
2	1394	61	13.917803910668
2	1396	62	13.924582225601
2	1476	63	13.959688465288
2	1478	64	13.957318032989
2	1568	65	13.940553226951
2	1570	66	13.998651232829
2	1664	67	13.999179182528
2	1666	68	13.886099785112
2	1762	69	13.881868150404
2	1764	70	13.887636745651
2	1866	71	13.978686858166
2	1868	72	11.380505228889
2	1967	73	6.8805052288885
2	1969	74	8.4946715655791
2	2069	75	10.462119500426
2	2071	76	12.535577293956
2	2176	77	13.991704303646
2	2178	78	13.884412832095
2	2284	79	13.939308186586
2	2286	80	13.975432322551
2	2397	81	13.918436620038
2	2399	82	13.942294309565
2	2525	83	13.978181636031
2	2527	84	13.992612206677
2	2657	85	13.973604970614
2	2659	86	13.905247902325
2	2788	87	13.91578970917
2	2790	88	13.942760436635
2	2924	89	13.903644982614
2	2926	90	13.957507387074
2	3063	91	13.990155698378
2	3065	92	13.951199041368
2	3205	93	13.920407453054
2	3207	94	13.913764986643
2	3353	95	13.919862737071
2	3355	96	13.927667983579
2	3506	97	13.987681491903
2	3508	98	13.949967818004
2	3660	99	13.923793041168
2	3662	100	13.956372545112
3	18	3	1.9133529532584
3	20	4	1.6952873393311
3	39	5	1.8731499400432
3	41	6	1.8034025248489
3	60	7	2.1224504257739
3	62	8	0.47851136310433
3	86	9	-0.1021267059911
3	88	10	0.086452728209551
3	118	11	0.018149402965792
3	120	12	-0.071146251906175
3	150	13	-0.0001373288989992
3	152	14	-0.013471481548622
3	184	15	0.054527352924923
3	186	16	0.03063477210002
3	220	17	-0.04292928970186
3	222	18	0.0046075960877356
3	257	19	-2.4534173319781
3	259	20	-4.5
3	296	21	0.8935116339894
3	298	22	2.2078255666373
3	336	23	1.8858743545134
3	338	24	1.9903831391631
3	376	25	-0.01549494290026
3	378	26	0.023465231521987
3	418	27	-0.032681161146611
3	420	28	-0.045395484422334
3	462	29	-0.021798015409148
3	464	30	0.019004409639164
3	507	31	0.075803257238585
3	509	32	-0.012492124584968
3	554	33	-0.098418530665803
3	556	34	0.11205169297755
3	605	35	-0.098285225864965
3	607	36	-0.01064266787842
3	654	37	0.091707072502468
3	656	38	-0.096865584938786
3	704	39	0.021350334375166
3	706	40	-0.020129852422979
3	756	41	0.12754734932445
3	758	42	-0.035107081409079
3	808	43	-0.058123281914741
3	810	44	0.015779600332026
3	863	45	0.0066701874043797
3	865	46	0.010192284216172
3	922	47	-0.014827134867664
3	924	48	0.044105808557942
3	978	49	0.018181241797283
3	980	50	-0.051492602068466
3	1036	51	-0.0050966037251055
3	1038	52	0.018296227052343
3	1101	53	-0.065421910630539
3	1103	54	-0.011582619075197
3	1169	55	0.062391626026946
3	1171	56	0.0084849686850799
3	1238	57	0.0091393382777465
3	1240	58	-0.064856647045817
3	1314	59	0.034172988792415
3	1316	60	-0.013924592840485
3	1394	61	0.011007046941668
3	1396	62	0.0067783149331806
3	1476	63	0.035106239686721
3	1478	64	-0.0023704322986315
3	1568	65	-0.016764806038699
3	1570	66	0.058098005878273
3	1664	67	0.0005279496987356
3	1666	68	-0.11307939741528
3	1762	69	-0.0042316347081215
3	1764	70	0.0057685952470639
3	1866	71	0.091050112515221
3	1868	72	-2.598181629278
3	1967	73	-4.5
3	1969	74	1.6141663366905
3	2069	75	1.9674479348469
3	2071	76	2.0734577935305
3	2176	77	1.4561270096891
3	2178	78	-0.10729147155071
3	2284	79	0.054895354490727
3	2286	80	0.036124135965947
3	2397	81	-0.056995702513959
3	2399	82	0.023857689527794
3	2525	83	0.035887326465454
3	2527	84	0.014430570646654
3	2657	85	-0.01900723606348
3	2659	86	-0.068357068288606
3	2788	87	0.010541806844994
3	2790	88	0.026970727464649
3	2924	89	-0.039115454021376
3	2926	90	0.053862404460089
3	3063	91	0.032648311303928
3	3065	92	-0.038956657010131
3	3205	93	-0.030791588313878
3	3207	94	-0.0066424664109945
3	3353	95	0.0060977504285979
3	3355	96	0.0078052465082141
3	3506	97	0.060013508324046
3	3508	98	-0.037713673899415
3	3660	99	-0.026174776835834
3	3662	100	0.032579503944145
4	18	3	4.1962556146115
4	20	4	4.6765885426193
4	39	5	5.9822455727343
4	41	6	6.7469998477461
4	60	7	8.9023657158011
4	62	8	3.651678681686
4	86	9	1.6857621818206
4	88	10	2.3276633668785
4	118	11	2.0995306276608
4	120	12	1.7923040941768
4	150	13	2.0305681317735
4	152	14	1.9844951865828
4	184	15	2.2187318873595
4	186	16	2.1416854339172
4	220	17	1.8896148890835
4	222	18	2.0499339673421
4	257	19	0.973
4	259	20	0.973
4	296	21	3.236958348016
4	298	22	7.0694109561587
4	336	23	7.2974163894139
4	338	24	8.7433911631671
4	376	25	1.9831721788576
4	378	26	2.116835898497
4	418	27	1.9244585801898
4	420	28	1.8775583559564
4	462	29	1.9545657515643
4	464	30	2.0931646705581
4	507	31	2.2926746988581
4	509	32	1.993865292131
4	554	33	1.6968396252803
4	556	34	2.4149847823944
4	605	35	1.6983583398882
4	607	36	1.9906198998388
4	654	37	2.3442713071536
4	656	38	1.7018725964397
4	704	39	2.0993392475273
4	706	40	1.9585122345881
4	756	41	2.4691677522194
4	758	42	1.9170802753567
4	808	43	1.8345014514108
4	810	44	2.0838538984303
4	863	45	2.0539801513469
4	865	46	2.0668686152862
4	922	47	1.9813596940184
4	924	48	2.1840996762636
4	978	49	2.0987681125428
4	980	50	1.8592856847688
4	1036	51	2.0145873760113
4	1038	52	2.0950692067684
4	1101	53	1.8080099866508
4	1103	54	1.9870007069688
4	1169	55	2.2415869227426
4	1171	56	2.0614496349521
4	1238	57	2.0646020593826
4	1240	58	1.8102089718445
4	1314	59	2.1453880261281
4	1316	60	1.9826536733129
4	1394	61	2.0673636130683
4	1396	62	2.0538817544551
4	1476	63	2.1528270365066
4	1478	64	2.0265038417738
4	1568	65	1.9764402783138
4	1570	66	2.2347131127692
4	1664	67	2.0405446651404
4	1666	68	1.6487905152147
4	1762	69	2.0126291187762
4	1764	70	2.0466796925005
4	1866	71	2.3433989621326
4	1868	72	0.973
4	1967	73	0.973
4	1969	74	4.8809554156367
4	2069	75	6.6811452761601
4	2071	76	8.1607584221603
4	2176	77	6.9480584672652
4	2178	78	1.6680322027993
4	2284	79	2.2170514259717
4	2286	80	2.1579993066844
4	2397	81	1.8393252185798
4	2399	82	2.1131063774542
4	2525	83	2.157506963768
4	2527	84	2.0867532276998
4	2657	85	1.9721338004887
4	2659	86	1.8000889448787
4	2788	87	2.0655927143501
4	2790	88	2.1236171019815
4	2924	89	1.8979343131076
4	2926	90	2.2156768175481
4	3063	91	2.1479163480387
4	3065	92	1.9028703189759
4	3205	93	1.9274090838955
4	3207	94	2.0077586487826
4	3353	95	2.0511097794732
4	3355	96	2.0576484682309
4	3506	97	2.2398922754829
4	3508	98	1.9069349143407
4	3660	99	1.9432214712872
4	3662	100	2.1439613436349
5	20	4	2414.8767583254
5	39	5	2411.8725636174
5	41	6	2407.2970525089
5	60	7	2402.4626210862
5	62	8	2396.3056860371
5	86	9	2388.8743536096
5	88	10	2380.097228827
5	118	11	2370.3507264333
5	120	12	2360.5878487076
5	150	13	2350.7849318213
5	152	14	2341.2418729237
5	184	15	2334.6305580324
5	186	16	2337.3467480277
5	220	17	2348.0519014368
5	222	18	2358.3998493504
5	257	19	2371.2788021446
5	259	20	2385.0887639745
5	296	21	2398.4985461925
5	298	22	2411.2485283293
5	336	23	2420.6905829484
5	338	24	2427.6440450998
5	376	25	2431.3031180431
5	378	26	2432.9057471878
5	418	27	2434.8184996871
5	420	28	2436.9106889558
5	462	29	2438.5031214217
5	464	30	2439.359314087
5	507	31	2440.3695716034
5	509	32	2441.3815056744
5	554	33	2442.392207776
5	556	34	2443.4019859718
5	605	35	2444.4122552489
5	607	36	2445.4251439738
5	654	37	2446.4367595227
5	656	38	2447.4467230743
5	704	39	2448.4574488286
5	706	40	2449.467800329
5	756	41	2450.4780716181
5	758	42	2449.7461704329
5	808	43	2448.6331060936
5	810	44	2447.5209445587
5	863	45	2446.407523851
5	865	46	2445.2946584851
5	922	47	2444.1824360332
5	924	48	2443.0706190476
5	978	49	2441.9568028547
5	980	50	2440.8451110823
5	1036	51	2439.8503503047
5	1038	52	2438.9091742415
5	1101	53	2438.2310626655
5	1103	54	2433.9050446447
5	1169	55	2424.21615465
5	1171	56	2411.3460908785
5	1238	57	2397.4706148925
5	1240	58	2383.5587488873
5	1314	59	2369.633660475
5	1316	60	2355.7048479554
5	1394	61	2341.7904321874
5	1396	62	2327.8638711022
5	1476	63	2313.9188814831
5	1478	64	2299.9979078089
5	1568	65	2286.0826278217
5	1570	66	2272.1551827891
5	1664	67	2258.2333055256
5	1666	68	2244.3319301521
5	1762	69	2230.5388995206
5	1764	70	2216.7493601282
5	1866	71	2203.5089906314
5	1868	72	2190.3028214657
5	1967	73	2177.2175397498
5	1969	74	2165.2424954871
5	2069	75	2153.7742474813
5	2071	76	2145.5067126864
5	2176	77	2139.5021617314
5	2178	78	2133.1382634535
5	2284	79	2125.5907683726
5	2286	80	2116.6856371113
5	2397	81	2107.1659774036
5	2399	82	2097.6471887421
5	2525	83	2088.1193509075
5	2527	84	2078.5897193553
5	2657	85	2069.0611372048
5	2659	86	2059.5358263678
5	2788	87	2050.0131364827
5	2790	88	2040.1145859665
5	2924	89	2030.1137191838
5	2926	90	2020.1430603783
5	3063	91	2010.1475011546
5	3065	92	2000.1671663148
5	3205	93	1990.1688805242
5	3207	94	1980.1967867191
5	3353	95	1970.2022643924
5	3355	96	1960.2251632516
5	3506	97	1950.2447792089
5	3508	98	1940.2416033717
5	3660	99	1930.4505492545
5	3662	100	1920.7111281679
6	20	4	1578.4506684253
6	39	5	1579.5537930429
6	41	6	1581.4165868293
6	60	7	1586.3131998433
6	62	8	1592.5493268352
6	86	9	1600.0762428036
6	88	10	1608.9662610246
6	118	11	1618.8381252186
6	120	12	1628.7265753681
6	150	13	1638.6555796713
6	152	14	1648.8046840783
6	184	15	1660.6325348346
6	186	16	1673.301875555
6	220	17	1682.2138796467
6	222	18	1691.5459182626
6	257	19	1695.5099147679
6	259	20	1697.3308411958
6	296	21	1698.6335971011
6	298	22	1699.8391930545
6	336	23	1700.7320023719
6	338	24	1701.2941834759
6	376	25	1708.3978488175
6	378	26	1718.9439634858
6	418	27	1731.5308475178
6	420	28	1745.2985167308
6	462	29	1759.1189484736
6	464	30	1773.033284259
6	507	31	1786.9263172904
6	509	32	1800.8424062571
6	554	33	1814.7415532097
6	556	34	1828.6279946407
6	605	35	1842.5211894047
6	607	36	1856.4504067414
6	654	37	1870.362115399
6	656	38	1884.2511058366
6	704	39	1898.150578063
6	706	40	1912.0449035605
6	756	41	1925.9381259941
6	758	42	1939.8457802581
6	808	43	1953.7382693188
6	810	44	1967.6194902081
6	863	45	1981.5164272105
6	865	46	1995.4064328251
6	922	47	2009.2884140396
6	924	48	2023.165334505
6	978	49	2037.0672076773
6	980	50	2050.942565321
6	1036	51	2064.8483957723
6	1038	52	2078.754013543
6	1101	53	2092.6537938379
6	1103	54	2105.6893007364
6	1169	55	2115.3934075218
6	1171	56	2120.5034639826
6	1238	57	2120.5707901428
6	1240	58	2120.100904949
6	1314	59	2119.6305731572
6	1316	60	2119.160115581
6	1394	61	2118.6901442679
6	1396	62	2118.2197627351
6	1476	63	2117.748758764
6	1478	64	2117.2785659507
6	1568	65	2116.8085654471
6	1570	66	2116.3381540589
6	1664	67	2115.8679307271
6	1666	68	2115.0734324455
6	1762	69	2113.117474094
6	1764	70	2111.1620108271
6	1866	71	2106.8134566117
6	1868	72	2102.3345389208
6	1967	73	2097.6439806372
6	1969	74	2090.5944611588
6	2069	75	2083.8432846358
6	2071	76	2078.976317442
6	2176	77	2075.2888157107
6	2178	78	2069.0204663062
6	2284	79	2060.9635068728
6	2286	80	2051.4572692998
6	2397	81	2041.2950219223
6	2399	82	2031.1337043885
6	2525	83	2020.9627268519
6	2527	84	2010.7898345208
6	2657	85	2000.6180624254
6	2659	86	1990.4497824619
6	2788	87	1980.2843003673
6	2790	88	1970.4765505949
6	2924	89	1960.7547187759
6	2926	90	1951.0622520996
6	3063	91	1941.3455797536
6	3065	92	1931.6437070146
6	3205	93	1921.9243841758
6	3207	94	1912.2305225376
6	3353	95	1902.5148581574
6	3355	96	1892.8161288938
6	3506	97	1883.1142083248
6	3508	98	1873.3901318768
6	3660	99	1863.491690998
6	3662	100	1853.5113144172
7	39	5	4.0332649588119
7	41	6	5.8265110515686
7	60	7	7.7852127750962
7	62	8	9.5658873894228
7	86	9	11.450149483434
7	88	10	13.391487500134
7	118	11	13.949883621705
7	120	12	13.87602620427
7	150	13	13.885232782268
7	152	14	13.987373048679
7	184	15	13.890608048609
7	186	16	13.887004709987
7	220	17	13.926980708602
7	222	18	13.89086526999
7	257	19	13.965056618985
7	259	20	13.946692067499
7	296	21	13.097137451398
7	298	22	11.939132677032
7	336	23	7.4783001788439
7	338	24	7.8592269216425
7	376	25	9.5749213322898
7	378	26	11.610942506126
7	418	27	13.581243869506
7	420	28	13.973211987913
7	462	29	13.918392209036
7	464	30	13.928662607018
7	507	31	13.985277111761
7	509	32	13.95532245066
7	554	33	13.938708755139
7	556	34	13.908545650935
7	605	35	13.927478809105
7	607	36	13.897819017794
7	654	37	13.989504252097
7	656	38	13.94374062394
7	704	39	13.903882643976
7	706	40	13.969130632835
7	756	41	13.884234787642
7	758	42	13.881978327318
7	808	43	13.927070145076
7	810	44	13.922745489741
7	863	45	13.95273740395
7	865	46	13.968270483359
7	922	47	13.918685564972
7	924	48	13.921468284922
7	978	49	13.897015957548
7	980	50	13.964752228069
7	1036	51	13.91147568828
7	1038	52	13.974545761354
7	1101	53	13.965476403411
7	1103	54	13.989670229855
7	1169	55	13.951804798429
7	1171	56	13.892850009208
7	1238	57	13.958218119799
7	1240	58	13.933717581006
7	1314	59	13.982012811573
7	1316	60	13.954506225567
7	1394	61	13.954468280503
7	1396	62	13.914126337939
7	1476	63	13.998578815588
7	1478	64	13.932968401979
7	1568	65	13.954534002345
7	1570	66	13.957377178506
7	1664	67	13.932528918332
7	1666	68	13.977439161665
7	1762	69	13.873707558191
7	1764	70	13.945779315263
7	1866	71	13.942668949808
7	1868	72	13.91575948562
7	1967	73	13.907857767178
7	1969	74	13.74288410399
7	2069	75	12.057991498623
7	2071	76	7.5687227125094
7	2176	77	7.8527784139012
7	2178	78	9.8502493766883
7	2284	79	11.94908444162
7	2286	80	13.947927183691
7	2397	81	13.884608772129
7	2399	82	13.932486002932
7	2525	83	13.933768573357
7	2527	84	13.982790281298
7	2657	85	13.883384850675
7	2659	86	13.990208008899
7	2788	87	13.960943002203
7	2790	88	13.999323605334
7	2924	89	13.898829272678
7	2926	90	13.923322260124
7	3063	91	13.97501944537
7	3065	92	13.884102251558
7	3205	93	13.933503699079
7	3207	94	13.929935510485
7	3353	95	13.932084917249
7	3355	96	13.988024637371
7	3506	97	13.905199357776
7	3508	98	13.983067730833
7	3660	99	13.914689087677
7	3662	100	13.959573372188
8	41	6	1.7932460927567
8	60	7	1.9587017235276
8	62	8	1.7806746143266
8	86	9	1.8842620940111
8	88	10	1.9413380167005
8	118	11	0.5583961215709
8	120	12	-0.073857417434921
8	150	13	0.0092065779981212
8	152	14	0.10214026641101
8	184	15	-0.096765000070445
8	186	16	-0.0036033386224883
8	220	17	0.039975998615846
8	222	18	-0.036115438612178
8	257	19	0.074191348995083
8	259	20	-0.018364551486448
8	296	21	-0.84955461610103
8	298	22	-1.1580047743662
8	336	23	-4.4608324981877
8	338	24	0.38092674279862
8	376	25	1.7156944106473
8	378	26	2.0360211738362
8	418	27	1.9703013633797
8	420	28	0.39196811840698
8	462	29	-0.054819778876846
8	464	30	0.010270397982096
8	507	31	0.056614504742901
8	509	32	-0.029954661100637
8	554	33	-0.016613695521373
8	556	34	-0.030163104203529
8	605	35	0.018933158169965
8	607	36	-0.029659791311714
8	654	37	0.091685234303586
8	656	38	-0.045763628156855
8	704	39	-0.039857979963999
8	706	40	0.065247988859191
8	756	41	-0.08489584519295
8	758	42	-0.0022564603248618
8	808	43	0.045091817758511
8	810	44	-0.0043246553349299
8	863	45	0.029991914208512
8	865	46	0.015533079409506
8	922	47	-0.0495849183877
8	924	48	0.0027827199501917
8	978	49	-0.024452327373437
8	980	50	0.067736270520836
8	1036	51	-0.053276539789513
8	1038	52	0.063070073074195
8	1101	53	-0.0090693579427903
8	1103	54	0.024193826443517
8	1169	55	-0.037865431425162
8	1171	56	-0.058954789221753
8	1238	57	0.065368110591081
8	1240	58	-0.024500538792926
8	1314	59	0.048295230567454
8	1316	60	-0.027506586005911
8	1394	61	-3.7945064249811e-05
8	1396	62	-0.040341942564119
8	1476	63	0.08445247764932
8	1478	64	-0.065610413609539
8	1568	65	0.021565600365866
8	1570	66	0.0028431761614058
8	1664	67	-0.024848260174041
8	1666	68	0.044910243332852
8	1762	69	-0.10373160347343
8	1764	70	0.072071757072118
8	1866	71	-0.0031103654555054
8	1868	72	-0.02690946418792
8	1967	73	-0.0079017184418628
8	1969	74	-0.16497366318824
8	2069	75	-1.6848926053673
8	2071	76	-4.4892687861132
8	2176	77	0.28405570139177
8	2178	78	1.997470962787
8	2284	79	2.0988350649318
8	2286	80	1.9988427420706
8	2397	81	-0.063318411561289
8	2399	82	0.04787723080255
8	2525	83	0.0012825704249551
8	2527	84	0.049021707940847
8	2657	85	-0.099405430622864
8	2659	86	0.10682315822458
8	2788	87	-0.029265006696805
8	2790	88	0.038380603131372
8	2924	89	-0.1004943326558
8	2926	90	0.024492987445557
8	3063	91	0.05169718524674
8	3065	92	-0.090917193812784
8	3205	93	0.049401447521522
8	3207	94	-0.0035681885946541
8	3353	95	0.0021494067646568
8	3355	96	0.055939720121678
8	3506	97	-0.082825279594399
8	3508	98	0.077868373056408
8	3660	99	-0.068378643156029
8	3662	100	0.044884284511209
9	41	6	3.9274001426868
9	60	7	5.2041356246368
9	62	8	5.7574507674447
9	86	9	7.0006276784153
9	88	10	8.2432295261252
9	118	11	3.9110016848773
9	120	12	1.7792042638201
9	150	13	2.0579365757541
9	152	14	2.3818636967155
9	184	15	1.7037407999188
9	186	16	2.0152488537881
9	220	17	2.1655550639215
9	222	18	1.906797412239
9	257	19	2.2849654495652
9	259	20	1.9716653983805
9	296	21	0.973
9	298	22	0.973
9	336	23	0.973
9	338	24	2.2554772362628
9	376	25	5.6120472675651
9	378	26	7.5119842129131
9	418	27	8.4455276517466
9	420	28	3.3560730035355
9	462	29	1.8466200733259
9	464	30	2.0660268329645
9	507	31	2.2281549844786
9	509	32	1.9335288120447
9	554	33	1.9767670407741
9	556	34	1.9283950769156
9	605	35	2.0949799016024
9	607	36	1.9290667558988
9	654	37	2.3468857079218
9	656	38	1.8793040227889
9	704	39	1.8954681876561
9	706	40	2.2553467174174
9	756	41	1.7429567241042
9	758	42	2.0192482635441
9	808	43	2.1827359052182
9	810	44	2.0164367628106
9	863	45	2.1348602115454
9	865	46	2.0878872407227
9	922	47	1.8642059318509
9	924	48	2.0401536442479
9	978	49	1.9464315106901
9	980	50	2.2632042711189
9	1036	51	1.851180617826
9	1038	52	2.2486511283506
9	1101	53	2.0047870143605
9	1103	54	2.1193583924862
9	1169	55	1.9065956504161
9	1171	56	1.8305118457369
9	1238	57	2.2544630998412
9	1240	58	1.9497933768092
9	1314	59	2.199742909699
9	1316	60	1.9416842431598
9	1394	61	2.0340583936544
9	1396	62	1.8947902862501
9	1476	63	2.3236156337703
9	1478	64	1.8116807487081
9	1568	65	2.1067187558746
9	1570	66	2.0440470145686
9	1664	67	1.9485115452067
9	1666	68	2.1878187851485
9	1762	69	1.6791237400594
9	1764	70	2.2755265645048
9	1866	71	2.0225291815531
9	1868	72	1.9399893034582
9	1967	73	2.0029455902709
9	1969	74	1.4663345211208
9	2069	75	0.973
9	2071	76	0.973
9	2176	77	2.0711335261948
9	2178	78	6.4152831024102
9	2284	79	7.8881081638602
9	2286	80	8.7525284671264
9	2397	81	1.815189301835
9	2399	82	2.1926999225795
9	2525	83	2.0363789456198
9	2527	84	2.2022797105907
9	2657	85	1.6943401481553
9	2659	86	2.3980130110749
9	2788	87	1.9363832529257
9	2790	88	2.1682681767827
9	2924	89	1.6918937064968
9	2926	90	2.1131931668759
9	3063	91	2.2104031609639
9	3065	92	1.7227981158715
9	3205	93	2.1979337916806
9	3207	94	2.0197021153789
9	3353	95	2.0391171435245
9	3355	96	2.2261991945464
9	3506	97	1.7515996111392
9	3508	98	2.2995223407801
9	3660	99	1.8008227620704
9	3662	100	2.1857101524767
10	60	7	2414.8848622198
10	62	8	2412.0691307599
10	86	9	2407.3819784434
10	88	10	2402.4639103656
10	118	11	2396.2016479742
10	120	12	2388.5021761758
10	150	13	2379.5347220144
10	152	14	2369.7521497252
10	184	15	2359.9648396304
10	186	16	2350.1637192596
10	220	17	2340.717056727
10	222	18	2334.4889366638
10	257	19	2338.0188398167
10	259	20	2348.6970945761
10	296	21	2359.0578910074
10	298	22	2372.1753142256
10	336	23	2385.9847009928
10	338	24	2399.0560799135
10	376	25	2411.469456295
10	378	26	2420.8240344936
10	418	27	2428.2511095385
10	420	28	2431.5096723901
10	462	29	2433.2168502312
10	464	30	2435.2011956087
10	507	31	2437.29147981
10	509	32	2438.672857787
10	554	33	2439.5458305131
10	556	34	2440.5569901068
10	605	35	2441.5662171456
10	607	36	2442.5764760413
10	654	37	2443.5864360537
10	656	38	2444.5969193554
10	704	39	2445.6077267987
10	706	40	2446.6171177449
10	756	41	2447.6285385494
10	758	42	2448.6389437378
10	808	43	2449.6489775468
10	810	44	2450.659299592
10	863	45	2449.5461587089
10	865	46	2448.4337074455
10	922	47	2447.3207898499
10	924	48	2446.207873206
10	978	49	2445.0940501215
10	980	50	2443.9833638043
10	1036	51	2442.8694501355
10	1038	52	2441.7571938549
10	1101	53	2440.6460889142
10	1103	54	2439.6824932018
10	1169	55	2438.741084579
10	1171	56	2437.8178922307
10	1238	57	2432.628875918
10	1240	58	2422.099758557
10	1314	59	2408.9617932498
10	1316	60	2395.0275024913
10	1394	61	2381.1194986589
10	1396	62	2367.2108877165
10	1476	63	2353.2913366285
10	1478	64	2339.3363710896
10	1568	65	2325.3913249692
10	1570	66	2311.4476897647
10	1664	67	2297.4983647275
10	1666	68	2283.5801531249
10	1762	69	2269.6389171832
10	1764	70	2255.7127677456
10	1866	71	2241.8359768615
10	1868	72	2228.0496562888
10	1967	73	2214.3204117303
10	1969	74	2201.1356404887
10	2069	75	2187.9527212165
10	2071	76	2175.0638567568
10	2176	77	2163.8270147669
10	2178	78	2153.0802669595
10	2284	79	2145.0715277719
10	2286	80	2138.8791204049
10	2397	81	2132.1538470712
10	2399	82	2124.1794652122
10	2525	83	2114.9682953636
10	2527	84	2105.4503674875
10	2657	85	2095.9174355941
10	2659	86	2086.3855086367
10	2788	87	2076.854366392
10	2790	88	2067.3279705069
10	2924	89	2057.7989259652
10	2926	90	2048.2657166205
10	3063	91	2038.283265963
10	3065	92	2028.2931978384
10	3205	93	2018.3027401837
10	3207	94	2008.3179219114
10	3353	95	1998.3240517773
10	3355	96	1988.3419555381
10	3506	97	1978.344027573
10	3508	98	1968.3550932935
10	3660	99	1958.3543494703
10	3662	100	1948.3578532202
11	60	7	1578.4476927174
11	62	8	1579.4816146148
11	86	9	1581.3305685576
11	88	10	1586.311893981
11	118	11	1592.6547030602
11	120	12	1600.4532072712
11	150	13	1609.5360029312
11	152	14	1619.4444009606
11	184	15	1629.3575977338
11	186	16	1639.2847824143
11	220	17	1649.4765304932
11	222	18	1661.4854336744
11	257	19	1673.8446300924
11	259	20	1682.7957309801
11	296	21	1692.1393567109
11	298	22	1695.6439150097
11	336	23	1697.4374776948
11	338	24	1698.6863156371
11	376	25	1699.860083269
11	378	26	1700.7446211064
11	418	27	1701.4003788568
11	420	28	1709.757081449
11	462	29	1720.9911797
11	464	30	1734.0491812732
11	507	31	1747.8043141738
11	509	32	1761.6824669717
11	554	33	1775.5982529195
11	556	34	1789.5036912933
11	605	35	1803.3825532272
11	607	36	1817.2756052278
11	654	37	1831.1645469936
11	656	38	1845.0606850199
11	704	39	1858.9612806309
11	706	40	1872.8423966132
11	756	41	1886.7514271513
11	758	42	1900.646490965
11	808	43	1914.536447579
11	810	44	1928.4487420022
11	863	45	1942.3421864314
11	865	46	1956.2270235084
11	922	47	1970.117681019
11	924	48	1984.0083266487
11	978	49	1997.9102858361
11	980	50	2011.7730940934
11	1036	51	2025.6761838896
11	1038	52	2039.5585873295
11	1101	53	2053.4266205495
11	1103	54	2067.3284383547
11	1169	55	2081.2374921273
11	1171	56	2095.1151711773
11	1238	57	2107.8121583294
11	1240	58	2116.6019557538
11	1314	59	2120.9589145361
11	1316	60	2120.4882719275
11	1394	61	2120.0185171831
11	1396	62	2119.548741932
11	1476	63	2119.0785971684
11	1478	64	2118.6072562514
11	1568	65	2118.1362503711
11	1570	66	2117.6652921457
11	1664	67	2117.1941417418
11	1666	68	2116.724042221
11	1762	69	2116.2531650327
11	1764	70	2115.7827974036
11	1866	71	2114.7194869779
11	1868	72	2112.7644801643
11	1967	73	2110.4801872596
11	1969	74	2106.008526748
11	2069	75	2101.537494339
11	2071	76	2096.3761414643
11	2176	77	2089.7611900093
11	2178	78	2083.4347492605
11	2284	79	2078.7201309539
11	2286	80	2074.7913125623
11	2397	81	2067.9696007185
11	2399	82	2059.456939172
11	2525	83	2049.6240050644
11	2527	84	2039.46360642
11	2657	85	2029.28719097
11	2659	86	2019.1118482901
11	2788	87	2008.9373432929
11	2790	88	1998.7679050388
11	2924	89	1988.5956393415
11	2926	90	1978.4189277124
11	3063	91	1968.6963263936
11	3065	92	1958.9849919388
11	3205	93	1949.2732788222
11	3207	94	1939.5670477431
11	3353	95	1929.8520173589
11	3355	96	1920.1484323656
11	3506	97	1910.4294573683
11	3508	98	1900.7192251235
11	3660	99	1890.9975128332
11	3662	100	1881.2799296053
12	62	8	3.930963162637
12	86	9	5.9263112237273
12	88	10	7.8381960794392
12	118	11	9.790430662247
12	120	12	11.728100012452
12	150	13	13.629514704516
12	152	14	13.941568216505
12	184	15	13.881279769889
12	186	16	13.897868440901
12	220	17	13.925429278756
12	222	18	13.988464023101
12	257	19	13.968606978769
12	259	20	13.918509052745
12	296	21	13.924308654484
12	298	22	13.951645852409
12	336	23	13.87926841794
12	338	24	12.793519969494
12	376	25	11.84351296104
12	378	26	7.4038563960913
12	418	27	8.4727548549238
12	420	28	10.367830629347
12	462	29	12.18869854925
12	464	30	13.961659159465
12	507	31	13.954832898835
12	509	32	13.985199820679
12	554	33	13.894128147855
12	556	34	13.93747920732
12	605	35	13.922516686122
12	607	36	13.936551663636
12	654	37	13.899921349036
12	656	38	13.905686459227
12	704	39	13.974518650502
12	706	40	13.926188751743
12	756	41	13.91506882193
12	758	42	13.902084701743
12	808	43	13.906688486487
12	810	44	13.974945872892
12	863	45	13.897515056985
12	865	46	13.921723058985
12	922	47	13.971591069859
12	924	48	13.925448836959
12	978	49	13.871581884674
12	980	50	13.876423048137
12	1036	51	13.873938687814
12	1038	52	13.902598275633
12	1101	53	13.87539361449
12	1103	54	13.972987024514
12	1169	55	13.957628285089
12	1171	56	13.950985880545
12	1238	57	13.943263569523
12	1240	58	13.891897078918
12	1314	59	13.874182712052
12	1316	60	13.982985400616
12	1394	61	13.927164004399
12	1396	62	13.899862960158
12	1476	63	13.960168966714
12	1478	64	13.961850514959
12	1568	65	13.962242161995
12	1570	66	13.925234322341
12	1664	67	13.991972472956
12	1666	68	13.975208927125
12	1762	69	13.946616810667
12	1764	70	13.894927249895
12	1866	71	13.997537077854
12	1868	72	13.937148143742
12	1967	73	13.949254455173
12	1969	74	13.872561737457
12	2069	75	13.941436031195
12	2071	76	13.877849130908
12	2176	77	12.619268954948
12	2178	78	11.767659231051
12	2284	79	7.2714327337119
12	2286	80	8.4181567059542
12	2397	81	10.470719517201
12	2399	82	12.55852173912
12	2525	83	13.888510530582
12	2527	84	13.878650632019
12	2657	85	13.945760953585
12	2659	86	13.92992599302
12	2788	87	13.882018232113
12	2790	88	13.939167882889
12	2924	89	13.977764886424
12	2926	90	13.894534370045
12	3063	91	13.966682291413
12	3065	92	13.930039903398
12	3205	93	13.975413697299
12	3207	94	13.895980606813
12	3353	95	13.916025194719
12	3355	96	13.874023362922
12	3506	97	13.903165594626
12	3508	98	13.893743275884
12	3660	99	13.891417812335
12	3662	100	13.984807741477
13	86	9	1.9953480610903
13	88	10	1.9118848557118
13	118	11	1.9522345828079
13	120	12	1.9376693502045
13	150	13	1.9014146920643
13	152	14	0.31205351198868
13	184	15	-0.060288446615449
13	186	16	0.016588671011849
13	220	17	0.027560837855562
13	222	18	0.063034744344186
13	257	19	-0.019857044331729
13	259	20	-0.050097926023881
13	296	21	0.0057996017392714
13	298	22	0.027337197924499
13	336	23	-0.072377434468363
13	338	24	-1.0857484484466
13	376	25	-0.95000700845353
13	378	26	-4.439656564949
13	418	27	1.0688984588324
13	420	28	1.8950757744233
13	462	29	1.8208679199032
13	464	30	1.7729606102145
13	507	31	-0.0068262606300422
13	509	32	0.03036692184396
13	554	33	-0.091071672823745
13	556	34	0.043351059465204
13	605	35	-0.01496252119774
13	607	36	0.014034977513365
13	654	37	-0.036630314600188
13	656	38	0.0057651101914225
13	704	39	0.068832191275433
13	706	40	-0.048329898759256
13	756	41	-0.01111992981285
13	758	42	-0.012984120186884
13	808	43	0.0046037847432316
13	810	44	0.068257386405021
13	863	45	-0.077430815906265
13	865	46	0.02420800199965
13	922	47	0.049868010873906
13	924	48	-0.046142232900019
13	978	49	-0.053866952285171
13	980	50	0.0048411634634249
13	1036	51	-0.0024843603232867
13	1038	52	0.028659587819128
13	1101	53	-0.027204661143477
13	1103	54	0.09759341002442
13	1169	55	-0.015358739425428
13	1171	56	-0.0066424045432356
13	1238	57	-0.007722311022226
13	1240	58	-0.051366490605288
13	1314	59	-0.017714366866276
13	1316	60	0.10880268856417
13	1394	61	-0.055821396217215
13	1396	62	-0.027301044240593
13	1476	63	0.06030600655591
13	1478	64	0.0016815482452515
13	1568	65	0.00039164703572148
13	1570	66	-0.037007839654107
13	1664	67	0.066738150615711
13	1666	68	-0.0167635458312
13	1762	69	-0.028592116457874
13	1764	70	-0.051689560771921
13	1866	71	0.10260982795851
13	1868	72	-0.060388934111689
13	1967	73	0.01210631143069
13	1969	74	-0.076692717715632
13	2069	75	0.068874293738045
13	2071	76	-0.063586900287774
13	2176	77	-1.2585801759596
13	2178	78	-0.85160972389679
13	2284	79	-4.4962264973393
13	2286	80	1.1467239722423
13	2397	81	2.0525628112466
13	2399	82	2.0878022219194
13	2525	83	1.3299887914615
13	2527	84	-0.0098598985630094
13	2657	85	0.067110321565998
13	2659	86	-0.015834960564971
13	2788	87	-0.047907760906964
13	2790	88	0.057149650775827
13	2924	89	0.038597003535834
13	2926	90	-0.0832305163797
13	3063	91	0.072147921368014
13	3065	92	-0.036642388014588
13	3205	93	0.045373793900945
13	3207	94	-0.079433090486564
13	3353	95	0.020044587906449
13	3355	96	-0.04200183179695
13	3506	97	0.029142231703736
13	3508	98	-0.0094223187421445
13	3660	99	-0.0023254635487682
13	3662	100	0.093389929141848
14	86	9	4.2649508166984
14	88	10	5.1441608835298
14	118	11	6.2752675611406
14	120	12	7.3015557220543
14	150	13	8.2469806235914
14	152	14	3.0813423760871
14	184	15	1.825038103975
14	186	16	2.0839753981971
14	220	17	2.1237162576214
14	222	18	2.2501690272635
14	257	19	1.9687844028223
14	259	20	1.8624692368163
14	296	21	2.0505690853877
14	298	22	2.1258147014109
14	336	23	1.7844264067381
14	338	24	0.973
14	376	25	0.973
14	378	26	0.973
14	418	27	3.7575341079103
14	420	28	6.4482222684255
14	462	29	7.2140195323343
14	464	30	8.0005078452345
14	507	31	2.0112657729674
14	509	32	2.1396802881933
14	554	33	1.7230808185304
14	556	34	2.1780640158967
14	605	35	1.980720158986
14	607	36	2.0794954629949
14	654	37	1.9059152732614
14	656	38	2.0485298427513
14	704	39	2.2680539427787
14	706	40	1.8690933945628
14	756	41	1.9928741031296
14	758	42	1.9853406570184
14	808	43	2.0447410785649
14	810	44	2.2661688405632
14	863	45	1.7690384486571
14	865	46	2.1120645090544
14	922	47	2.2038504354464
14	924	48	1.8763684319447
14	978	49	1.8456610488087
14	980	50	2.0424227277346
14	1036	51	2.0176736696174
14	1038	52	2.1249196677245
14	1101	53	1.9351566644326
14	1103	54	2.3647248781457
14	1169	55	1.9828454643184
14	1171	56	2.0114971183472
14	1238	57	2.007091813677
14	1240	58	1.8558336695686
14	1314	59	1.9667740746073
14	1316	60	2.4037578966905
14	1394	61	1.844036691971
14	1396	62	1.9371616602798
14	1476	63	2.2376623461065
14	1478	64	2.0405988072341
14	1568	65	2.0362986285583
14	1570	66	1.9070037954822
14	1664	67	2.2630700095878
14	1666	68	1.9798474403324
14	1762	69	1.9372818212763
14	1764	70	1.8550225742329
14	1866	71	2.3847397299678
14	1868	72	1.8295794064806
14	1967	73	2.0743518631084
14	1969	74	1.7694347592009
14	2069	75	2.2642644670172
14	2071	76	1.8137074180615
14	2176	77	0.973
14	2178	78	0.973
14	2284	79	0.973
14	2286	80	3.8976468345674
14	2397	81	6.9006815444997
14	2399	82	8.2177466262902
14	2525	83	6.4791082854315
14	2527	84	1.9934802295803
14	2657	85	2.2588493406892
14	2659	86	1.9785202232272
14	2788	87	1.866522840978
14	2790	88	2.2246081928829
14	2924	89	2.1665886194004
14	2926	90	1.7493699939429
14	3063	91	2.2782826967557
14	3065	92	1.908677970281
14	3205	93	2.1891507767845
14	3207	94	1.7622054562569
14	3353	95	2.0974873772285
14	3355	96	1.8855500369507
14	3506	97	2.1265985206215
14	3508	98	1.996444163955
14	3660	99	2.0199719555639
14	3662	100	2.3520461315502
15	88	10	2414.8652957816
15	118	11	2411.9402292009
15	120	12	2407.1594214574
15	150	13	2402.0350675649
15	152	14	2395.5354035812
15	184	15	2387.5598131203
15	186	16	2378.2983909701
15	220	17	2368.4972038758
15	222	18	2358.719633554
15	257	19	2348.9248444787
15	259	20	2339.614370346
15	296	21	2334.1997176057
15	298	22	2339.4193692133
15	336	23	2350.023330241
15	338	24	2360.3662725991
15	376	25	2373.90233667
15	378	26	2387.7152259793
15	418	27	2400.5914429313
15	420	28	2412.9398871803
15	462	29	2421.7139854309
15	464	30	2429.0882121673
15	507	31	2431.6639768599
15	509	32	2433.4302155024
15	554	33	2435.4611475593
15	556	34	2437.5533698815
15	605	35	2438.7684759141
15	607	36	2439.671540139
15	654	37	2440.6813741141
15	656	38	2441.6917844916
15	704	39	2442.7022041357
15	706	40	2443.7124593587
15	756	41	2444.7229332504
15	758	42	2445.7337078364
15	808	43	2446.7459111849
15	810	44	2447.757486716
15	863	45	2448.7683903823
15	865	46	2449.7777371067
15	922	47	2450.5176811377
15	924	48	2449.4057673637
15	978	49	2448.2921364765
15	980	50	2447.1808208324
15	1036	51	2446.0691226661
15	1038	52	2444.9566500478
15	1101	53	2443.8447802094
15	1103	54	2442.731477023
15	1169	55	2441.6197022425
15	1171	56	2440.5080080784
15	1238	57	2439.5670555097
15	1240	58	2438.6556009268
15	1314	59	2437.5062560235
15	1316	60	2431.5722499692
15	1394	61	2420.527699944
15	1396	62	2407.2382113171
15	1476	63	2393.3269784888
15	1478	64	2379.3955530388
15	1568	65	2365.4745847809
15	1570	66	2351.529199079
15	1664	67	2337.6079130118
15	1666	68	2323.6725767179
15	1762	69	2309.7385225614
15	1764	70	2295.8080973643
15	1866	71	2281.8952010303
15	1868	72	2267.9654732505
15	1967	73	2254.0466482575
15	1969	74	2240.2066991659
15	2069	75	2226.4173803013
15	2071	76	2212.7662110776
15	2176	77	2199.5729332234
15	2178	78	2186.3872113026
15	2284	79	2173.6474240444
15	2286	80	2162.5677132215
15	2397	81	2151.8935926168
15	2399	82	2144.3555114834
15	2525	83	2138.2247302437
15	2527	84	2131.6834204124
15	2657	85	2123.8660908783
15	2659	86	2114.7614731657
15	2788	87	2105.2411713355
15	2790	88	2095.7108763196
15	2924	89	2086.1925951599
15	2926	90	2076.6852548176
15	3063	91	2067.1594253494
15	3065	92	2057.632607371
15	3205	93	2048.1022976771
15	3207	94	2038.1078835877
15	3353	95	2028.1127831832
15	3355	96	2018.1190521012
15	3506	97	2008.1323748323
15	3508	98	1998.1359312494
15	3660	99	1988.1404383939
15	3662	100	1978.1503242605
16	88	10	1578.4548774119
16	118	11	1579.5289465943
16	120	12	1581.5559881236
16	150	13	1586.7462526578
16	152	14	1593.3295168448
16	184	15	1601.4076912217
16	186	16	1610.7882359559
16	220	17	1620.7154882178
16	222	18	1630.6188199436
16	257	19	1640.5395918936
16	259	20	1650.8881406859
16	296	21	1663.2272230769
16	298	22	1674.9756418047
16	336	23	1683.991763521
16	338	24	1693.3192880014
16	376	25	1695.9020503219
16	378	26	1697.6139621651
16	418	27	1698.8314944636
16	420	28	1699.9991223291
16	462	29	1700.8287719106
16	464	30	1701.8119543158
16	507	31	1710.77248332
16	509	32	1722.3952316754
16	554	33	1735.7597972872
16	556	34	1749.5276840087
16	605	35	1763.4065813264
16	607	36	1777.3270081691
16	654	37	1791.2142166747
16	656	38	1805.1093518483
16	704	39	1819.0046144547
16	706	40	1832.8976159496
16	756	41	1846.7936245678
16	758	42	1860.6937683271
16	808	43	1874.6135603888
16	810	44	1888.5247187214
16	863	45	1902.4266375881
16	865	46	1916.3071454344
16	922	47	1930.2163243052
16	924	48	1944.0944528161
16	978	49	1957.9940131316
16	980	50	1971.8646762054
16	1036	51	1985.7401136523
16	1038	52	1999.6252172682
16	1101	53	2013.5027974071
16	1103	54	2027.3982675895
16	1169	55	2041.2746612821
16	1171	56	2055.1500487765
16	1238	57	2069.0339985425
16	1240	58	2082.9232102502
16	1314	59	2096.7668430749
16	1316	60	2109.1502521159
16	1394	61	2117.3046830418
16	1396	62	2120.90069908
16	1476	63	2120.4308352731
16	1478	64	2119.9602894429
16	1568	65	2119.4900968131
16	1570	66	2119.0190794626
16	1664	67	2118.5488760993
16	1666	68	2118.0781981768
16	1762	69	2117.6075635599
16	1764	70	2117.1370515134
16	1866	71	2116.6671315199
16	1868	72	2116.1966430303
16	1967	73	2115.7265227912
16	1969	74	2114.4884428075
16	2069	75	2112.5330108125
16	2071	76	2109.9530747626
16	2176	77	2105.4785292046
16	2178	78	2101.0065462673
16	2284	79	2095.5423098914
16	2286	80	2089.0198590728
16	2397	81	2082.7361728121
16	2399	82	2078.2986234706
16	2525	83	2074.2687771348
16	2527	84	2067.4674197342
16	2657	85	2059.1224117205
16	2659	86	2049.4032221371
16	2788	87	2039.2402892942
16	2790	88	2029.0666887136
16	2924	89	2018.9059129385
16	2926	90	2008.756816498
16	3063	91	1998.5879828949
16	3065	92	1988.4180940567
16	3205	93	1978.2444778075
16	3207	94	1968.5258373758
16	3353	95	1958.8096110467
16	3355	96	1949.0947158355
16	3506	97	1939.3866776275
16	3508	98	1929.6691455971
16	3660	99	1919.9525377667
16	3662	100	1910.2411585869
17	118	11	4.0076977833542
17	120	12	6.1677344774264
17	150	13	8.1549676716625
17	152	14	10.178332106699
17	184	15	12.262859039094
17	186	16	13.909239285488
17	220	17	13.972104677679
17	222	18	13.964405047395
17	257	19	13.904001857305
17	259	20	13.959390929798
17	296	21	13.878038117993
17	298	22	13.946876353603
17	336	23	13.944667257406
17	338	24	13.919344021892
17	376	25	13.927560248445
17	378	26	13.871213583788
17	418	27	12.691334807668
17	420	28	11.253789109264
17	462	29	6.8021452137647
17	464	30	8.5806848426844
17	507	31	10.511503565412
17	509	32	12.634297992723
17	554	33	13.965718502484
17	556	34	13.984844662666
17	605	35	13.956789441942
17	607	36	13.956542154332
17	654	37	13.917345386401
17	656	38	13.978046209081
17	704	39	13.982312166321
17	706	40	13.915473192113
17	756	41	13.879970237834
17	758	42	13.897895857247
17	808	43	13.999869057706
17	810	44	13.978634591533
17	863	45	13.942230677728
17	865	46	13.955766034983
17	922	47	13.950300372976
17	924	48	13.917481608128
17	978	49	13.942320762996
17	980	50	13.893100212866
17	1036	51	13.91633811252
17	1038	52	13.928179549885
17	1101	53	13.968941585214
17	1103	54	13.947614409933
17	1169	55	13.993828555658
17	1171	56	13.915365449623
17	1238	57	13.876728287677
17	1240	58	13.918426910553
17	1314	59	13.974088552413
17	1316	60	13.92781890474
17	1394	61	13.871840020602
17	1396	62	13.950818891171
17	1476	63	13.896373478309
17	1478	64	13.98123223257
17	1568	65	13.934642261642
17	1570	66	13.995758003502
17	1664	67	13.879077432866
17	1666	68	13.899420192223
17	1762	69	13.964884717481
17	1764	70	13.997399434138
17	1866	71	13.963054893557
17	1868	72	13.99507131309
17	1967	73	13.959758597296
17	1969	74	13.892642100183
17	2069	75	13.940251250723
17	2071	76	13.994889584298
17	2176	77	13.944894047023
17	2178	78	13.899651392188
17	2284	79	13.918337521636
17	2286	80	12.682299991135
17	2397	81	11.222258036733
17	2399	82	6.7222580367331
17	2525	83	8.2824802284273
17	2527	84	10.407365347124
17	2657	85	12.288563672635
17	2659	86	13.989832558867
17	2788	87	13.923362842468
17	2790	88	13.975876405358
17	2924	89	13.93839835058
17	2926	90	13.920164887339
17	3063	91	13.987886479371
17	3065	92	13.946328101926
17	3205	93	13.963491377556
17	3207	94	13.876388441026
17	3353	95	13.944492442033
17	3355	96	13.894819367053
17	3506	97	13.957421940223
17	3508	98	13.966641563782
17	3660	99	13.914598768649
17	3662	100	13.908863330737
18	120	12	2.1600366940722
18	150	13	1.9872331942362
18	152	14	2.0233644350362
18	184	15	2.0845269323955
18	186	16	1.6463802463939
18	220	17	0.062865392190869
18	222	18	-0.0076996302837493
18	257	19	-0.060403190089856
18	259	20	0.055389072492252
18	296	21	-0.081352811804972
18	298	22	0.068838235610166
18	336	23	-0.0022090961970385
18	338	24	-0.025323235513643
18	376	25	0.0082162265526122
18	378	26	-0.056346664656886
18	418	27	-1.1798787761197
18	420	28	-1.4375456984038
18	462	29	-4.4516438954996
18	464	30	1.7785396289197
18	507	31	1.9308187227277
18	509	32	2.1227944273106
18	554	33	1.3314205097611
18	556	34	0.01912616018206
18	605	35	-0.028055220723617
18	607	36	-0.00024728761054682
18	654	37	-0.039196767930406
18	656	38	0.060700822679792
18	704	39	0.0042659572395483
18	706	40	-0.06683897420764
18	756	41	-0.035502954279073
18	758	42	0.017925619413145
18	808	43	0.10197320045903
18	810	44	-0.021234466172753
18	863	45	-0.036403913805263
18	865	46	0.013535357255023
18	922	47	-0.0054656620067544
18	924	48	-0.032818764848635
18	978	49	0.024839154868388
18	980	50	-0.049220550130123
18	1036	51	0.023237899653614
18	1038	52	0.011841437364929
18	1101	53	0.040762035329827
18	1103	54	-0.021327175281478
18	1169	55	0.046214145724662
18	1171	56	-0.078463106034324
18	1238	57	-0.038637161946388
18	1240	58	0.041698622875845
18	1314	59	0.055661641859915
18	1316	60	-0.046269647672306
18	1394	61	-0.055978884138167
18	1396	62	0.078978870569262
18	1476	63	-0.054445412862115
18	1478	64	0.084858754260932
18	1568	65	-0.046589970928617
18	1570	66	0.061115741860121
18	1664	67	-0.11668057063594
18	1666	68	0.0203427593573
18	1762	69	0.065464525257703
18	1764	70	0.032514716656879
18	1866	71	-0.034344540580641
18	1868	72	0.032016419533175
18	1967	73	-0.035312715794426
18	1969	74	-0.067116497112439
18	2069	75	0.047609150540083
18	2071	76	0.054638333574404
18	2176	77	-0.049995537274517
18	2178	78	-0.045242654834874
18	2284	79	0.018686129447767
18	2286	80	-1.2360375305007
18	2397	81	-1.4600419544023
18	2399	82	-4.5
18	2525	83	1.5602221916942
18	2527	84	2.1248851186968
18	2657	85	1.8811983255111
18	2659	86	1.7012688862319
18	2788	87	-0.066469716399443
18	2790	88	0.052513562890235
18	2924	89	-0.037478054778184
18	2926	90	-0.018233463240321
18	3063	91	0.067721592031884
18	3065	92	-0.041558377444744
18	3205	93	0.017163275629283
18	3207	94	-0.087102936529554
18	3353	95	0.068104001006576
18	3355	96	-0.0496730749798
18	3506	97	0.062602573169862
18	3508	98	0.0092196235596198
18	3660	99	-0.052042795133312
18	3662	100	-0.0057354379119339
19	120	12	4.6399364442395
19	150	13	5.459099048015
19	152	14	6.6616810382017
19	184	15	8.0324172249288
19	186	16	7.5484463594625
19	220	17	2.247674957111
19	222	18	2.0092894812461
19	257	19	1.8266349661585
19	259	20	2.2210298717235
19	296	21	1.7543037306746
19	298	22	2.264789170887
19	336	23	2.0257606197441
19	338	24	1.9456524984792
19	376	25	2.059016748537
19	378	26	1.8373388380236
19	418	27	0.973
19	420	28	0.973
19	462	29	0.973
19	464	30	5.2602175796137
19	507	31	6.6156566027659
19	509	32	8.3694083781091
19	554	33	6.5165491496521
19	556	34	2.1017560319966
19	605	35	1.9400571066544
19	607	36	2.0335662245147
19	654	37	1.8989280401226
19	656	38	2.2410813776431
19	704	39	2.0514099723484
19	706	40	1.8060532207838
19	756	41	1.9078333116417
19	758	42	2.0884562634303
19	808	43	2.3828885778754
19	810	44	1.9651224554136
19	863	45	1.910615850939
19	865	46	2.0798426520326
19	922	47	2.015384407742
19	924	48	1.9203331804895
19	978	49	2.1164070517746
19	980	50	1.8631262853673
19	1036	51	2.108230627045
19	1038	52	2.0712498573739
19	1101	53	2.1728920736305
19	1103	54	1.9617970432444
19	1169	55	2.1940726512002
19	1171	56	1.7670612526642
19	1238	57	1.8970499029483
19	1240	58	2.1703787731
19	1314	59	2.2236475952785
19	1316	60	1.876156120652
19	1394	61	1.8386234882413
19	1396	62	2.2993516664104
19	1476	63	1.8459222947006
19	1478	64	2.3228538313892
19	1568	65	1.8757004712267
19	1570	66	2.2445546956586
19	1664	67	1.6362226447506
19	1666	68	2.096714827559
19	1762	69	2.2555743425322
19	1764	70	2.1482652379368
19	1866	71	1.9194912088098
19	1868	72	2.1463276308042
19	1967	73	1.9159241804067
19	1969	74	1.8031672167249
19	2069	75	2.1926814474566
19	2071	76	2.2226060743817
19	2176	77	1.8651868385758
19	2178	78	1.8770404241569
19	2284	79	2.0931775117982
19	2286	80	0.973
19	2397	81	0.973
19	2399	82	0.973
19	2525	83	4.6763588865112
19	2527	84	7.0457697501971
19	2657	85	7.4454773865313
19	2659	86	7.7737177996377
19	2788	87	1.8079694223127
19	2790	88	2.2132512754183
19	2924	89	1.9066500006632
19	2926	90	1.9695156486718
19	3063	91	2.2659008158816
19	3065	92	1.8936738738303
19	3205	93	2.0928664134049
19	3207	94	1.7349388279652
19	3353	95	2.2620386480536
19	3355	96	1.8617654496
19	3506	97	2.2450666168368
19	3508	98	2.0664636500357
19	3660	99	1.8555959788498
19	3662	100	2.0103075424714
20	150	13	2414.9020294819
20	152	14	2411.9226306152
20	184	15	2407.1557433844
20	186	16	2402.1104710221
20	220	17	2395.7699587477
20	222	18	2388.0304223568
20	257	19	2379.4738079484
20	259	20	2370.893774931
20	296	21	2362.3077945379
20	298	22	2353.7435980395
20	336	23	2345.1609503828
20	338	24	2337.382531011
20	376	25	2333.9513923901
20	378	26	2339.5342791209
20	418	27	2348.8453277851
20	420	28	2357.9087556405
20	462	29	2368.8976739903
20	464	30	2380.9775286298
20	507	31	2393.1030453129
20	509	32	2405.2335576123
20	554	33	2416.5418459401
20	556	34	2423.9663700609
20	605	35	2430.570008137
20	607	36	2432.1000471369
20	654	37	2433.9002697327
20	656	38	2435.9543662666
20	704	39	2437.9596728822
20	706	40	2438.9494181712
20	756	41	2439.9070256213
20	758	42	2440.9176562928
20	808	43	2441.9269052453
20	810	44	2442.9366141059
20	863	45	2443.9464281293
20	865	46	2444.9573541252
20	922	47	2445.9691156872
20	924	48	2446.979716951
20	978	49	2447.9896090399
20	980	50	2448.9998733379
20	1036	51	2450.0085675253
20	1038	52	2450.2645866362
20	1101	53	2449.1499465979
20	1103	54	2448.0369973981
20	1169	55	2446.9233345203
20	1171	56	2445.8120863364
20	1238	57	2444.7009855164
20	1240	58	2443.5879624323
20	1314	59	2442.4739204658
20	1316	60	2441.3600381962
20	1394	61	2440.2864050268
20	1396	62	2439.3445139695
20	1476	63	2438.5901630576
20	1478	64	2436.8932832642
20	1568	65	2429.488703159
20	1570	66	2417.5025738811
20	1664	67	2403.9129781366
20	1666	68	2389.9861979192
20	1762	69	2376.0739265668
20	1764	70	2362.1500415469
20	1866	71	2348.2060115275
20	1868	72	2334.2734054149
20	1967	73	2320.3213743683
20	1969	74	2306.4009303466
20	2069	75	2292.4771050191
20	2071	76	2278.5479599123
20	2176	77	2264.6368773527
20	2178	78	2250.7243448626
20	2284	79	2236.9039189327
20	2286	80	2223.1179117287
20	2397	81	2209.6039438429
20	2399	82	2196.4025677925
20	2525	83	2183.1901106401
20	2527	84	2170.7350373176
20	2657	85	2158.7224374937
20	2659	86	2148.7456293084
20	2788	87	2142.2674842543
20	2790	88	2135.7545730094
20	2924	89	2128.7294569926
20	2926	90	2120.3969778569
20	3063	91	2110.9437647488
20	3065	92	2101.4258741168
20	3205	93	2091.8811018262
20	3207	94	2082.3479541944
20	3353	95	2072.8186411535
20	3355	96	2063.2875807942
20	3506	97	2053.7700346734
20	3508	98	2044.0556859405
20	3660	99	2034.0581337555
20	3662	100	2024.081490968
21	150	13	1578.4413889889
21	152	14	1579.5354087027
21	184	15	1581.5597135043
21	186	16	1586.6698793434
21	220	17	1593.0919447746
21	222	18	1600.9310288979
21	257	19	1609.5977004888
21	259	20	1618.2880919036
21	296	21	1626.984507191
21	298	22	1635.6588583943
21	336	23	1644.3518980779
21	338	24	1653.7452424029
21	376	25	1665.1186078088
21	378	26	1675.0684384657
21	418	27	1682.929411401
21	420	28	1691.1030376544
21	462	29	1695.1540113101
21	464	30	1696.8415124407
21	507	31	1698.123416462
21	509	32	1699.2704374064
21	554	33	1700.3397115832
21	556	34	1700.9751795586
21	605	35	1703.8619754324
21	607	36	1713.6420474732
21	654	37	1725.4884275207
21	656	38	1739.0054271705
21	704	39	1752.7795728892
21	706	40	1766.6691963989
21	756	41	1780.5653979182
21	758	42	1794.4635625677
21	808	43	1808.342725859
21	810	44	1822.2282137927
21	863	45	1836.1151479203
21	865	46	1850.0173738636
21	922	47	1863.9310904881
21	924	48	1877.8288507257
21	978	49	1891.7168584093
21	980	50	1905.6099847034
21	1036	51	1919.4815188777
21	1038	52	1933.3752725068
21	1101	53	1947.287428339
21	1103	54	1961.1784803104
21	1169	55	1975.07843991
21	1171	56	1988.9482609928
21	1238	57	2002.8162427824
21	1240	58	2016.7082169261
21	1314	59	2030.6129080458
21	1316	60	2044.5156059386
21	1394	61	2058.405807049
21	1396	62	2072.3219886608
21	1476	63	2086.2172475774
21	1478	64	2100.0155986995
21	1568	65	2111.7128415443
21	1570	66	2118.6569472738
21	1664	67	2120.7883864809
21	1666	68	2120.3179975469
21	1762	69	2119.8480986627
21	1764	70	2119.3778075166
21	1866	71	2118.9068359565
21	1868	72	2118.436250248
21	1967	73	2117.965008446
21	1969	74	2117.4948335225
21	2069	75	2117.0245443936
21	2071	76	2116.5540755838
21	2176	77	2116.0842168517
21	2178	78	2115.614309147
21	2284	79	2114.0200830428
21	2286	80	2112.0651206672
21	2397	81	2108.8805809543
21	2399	82	2104.4032888655
21	2525	83	2099.9222385827
21	2527	84	2093.8278338108
21	2657	85	2086.7562059667
21	2659	86	2080.8830165165
21	2788	87	2077.0694348095
21	2790	88	2071.8133796817
21	2924	89	2064.3140604822
21	2926	90	2055.4191296929
21	3063	91	2045.3278141357
21	3065	92	2035.1674552495
21	3205	93	2024.9784001615
21	3207	94	2014.8017544113
21	3353	95	2004.6292020902
21	3355	96	1994.4547845051
21	3506	97	1984.2947933851
21	3508	98	1974.3076896314
21	3660	99	1964.5890799295
21	3662	100	1954.8907962302
22	152	14	4.1202440707026
22	184	15	6.098204819389
22	186	16	7.9892263333931
22	220	17	9.9395148638858
22	222	18	11.888312638128
22	257	19	12.215156767303
22	259	20	12.204687935296
22	296	21	12.224623291104
22	298	22	12.210776680999
22	336	23	12.179672799767
22	338	24	12.160016026092
22	376	25	12.139849843977
22	378	26	12.143721937142
22	418	27	12.197962211408
22	420	28	12.182525644068
22	462	29	12.239106989266
22	464	30	12.235862109773
22	507	31	12.230306803957
22	509	32	12.179537976573
22	554	33	9.6862829881538
22	556	34	6.6424673210172
22	605	35	8.8478549035121
22	607	36	10.859035527671
22	654	37	12.909402498856
22	656	38	13.992245385351
22	704	39	13.943547738914
22	706	40	13.916770352069
22	756	41	13.945535122917
22	758	42	13.906703865982
22	808	43	13.929781103753
22	810	44	13.945612282939
22	863	45	13.915959525181
22	865	46	13.967522231955
22	922	47	13.972525620006
22	924	48	13.883536923684
22	978	49	13.909812615521
22	980	50	13.926507747294
22	1036	51	13.897951097498
22	1038	52	13.93396450304
22	1101	53	13.967009024217
22	1103	54	13.893721483571
22	1169	55	13.88568516843
22	1171	56	13.927406547926
22	1238	57	13.918185825639
22	1240	58	13.942741125419
22	1314	59	13.888825567171
22	1316	60	13.956811681101
22	1394	61	13.967852384013
22	1396	62	13.917130999181
22	1476	63	13.962056111419
22	1478	64	13.973261172024
22	1568	65	13.976665152721
22	1570	66	13.929094264333
22	1664	67	13.988442988638
22	1666	68	13.963501574658
22	1762	69	13.904512311171
22	1764	70	13.881385968712
22	1866	71	13.955823229789
22	1868	72	13.91319160128
22	1967	73	13.978148939102
22	1969	74	13.900433905981
22	2069	75	13.932413932714
22	2071	76	13.914297275015
22	2176	77	13.888481071207
22	2178	78	13.889434551739
22	2284	79	13.943012665312
22	2286	80	13.907442593111
22	2397	81	13.992288785644
22	2399	82	13.906425842233
22	2525	83	13.939350437876
22	2527	84	13.895723804492
22	2657	85	13.979782601763
22	2659	86	9.5595155807823
22	2788	87	7.2008205324427
22	2790	88	9.2703087067014
22	2924	89	11.127202614547
22	2926	90	13.051637053345
22	3063	91	13.982521570069
22	3065	92	13.958346453356
22	3205	93	13.987895995232
22	3207	94	13.977045242079
22	3353	95	13.958020239889
22	3355	96	13.916281378635
22	3506	97	13.898014712506
22	3508	98	13.879000762429
22	3660	99	13.880664357552
22	3662	100	13.903560437779
23	184	15	1.9779607486865
23	186	16	1.8910215140041
23	220	17	1.9502885304927
23	222	18	1.9487977742427
23	257	19	0.32684412917498
23	259	20	-0.010468832007609
23	296	21	0.019935355808121
23	298	22	-0.013846610104666
23	336	23	-0.031103881231974
23	338	24	-0.019656773675234
23	376	25	-0.020166182115208
23	378	26	0.0038720931648282
23	418	27	0.054240274266339
23	420	28	-0.015436567340512
23	462	29	0.056581345198211
23	464	30	-0.0032448794925592
23	507	31	-0.0055553058162339
23	509	32	-0.050768827383871
23	554	33	-2.4932549884193
23	556	34	-3.0438156671366
23	605	35	2.2053875824949
23	607	36	2.0111806241586
23	654	37	2.0503669711854
23	656	38	1.082842886495
23	704	39	-0.048697646437214
23	706	40	-0.026777386844623
23	756	41	0.028764770848211
23	758	42	-0.038831256935373
23	808	43	0.023077237771357
23	810	44	0.015831179185771
23	863	45	-0.02965275775874
23	865	46	0.051562706774567
23	922	47	0.0050033880514082
23	924	48	-0.088988696322776
23	978	49	0.026275691837073
23	980	50	0.016695131773595
23	1036	51	-0.028556649796665
23	1038	52	0.036013405541889
23	1101	53	0.033044521177652
23	1103	54	-0.07328754064627
23	1169	55	-0.0080363151407798
23	1171	56	0.041721379496158
23	1238	57	-0.009220722287429
23	1240	58	0.024555299780332
23	1314	59	-0.053915558247827
23	1316	60	0.067986113929656
23	1394	61	0.01104070291156
23	1396	62	-0.050721384831705
23	1476	63	0.044925112237689
23	1478	64	0.011205060605425
23	1568	65	0.0034039806970405
23	1570	66	-0.047570888388437
23	1664	67	0.059348724305165
23	1666	68	-0.024941413979978
23	1762	69	-0.058989263486584
23	1764	70	-0.023126342459582
23	1866	71	0.07443726107711
23	1868	72	-0.042631628508678
23	1967	73	0.064957337821832
23	1969	74	-0.077715033120475
23	2069	75	0.031980026732198
23	2071	76	-0.018116657698991
23	2176	77	-0.025816203807482
23	2178	78	0.0009534805314626
23	2284	79	0.053578113573604
23	2286	80	-0.035570072201081
23	2397	81	0.084846192533149
23	2399	82	-0.085862943411339
23	2525	83	0.032924595642836
23	2527	84	-0.043626633384266
23	2657	85	0.084058797270991
23	2659	86	-4.4202670209802
23	2788	87	-2.3586950483396
23	2790	88	2.0694881742587
23	2924	89	1.8568939078459
23	2926	90	1.9244344387972
23	3063	91	0.93088451672424
23	3065	92	-0.024175116713158
23	3205	93	0.029549541876186
23	3207	94	-0.010850753153209
23	3353	95	-0.019025002189446
23	3355	96	-0.041738861254418
23	3506	97	-0.018266666128765
23	3508	98	-0.019013950077351
23	3660	99	0.0016635951236825
23	3662	100	0.022896080226637
24	184	15	4.3320714987557
24	186	16	5.183486961616
24	220	17	6.3519610936481
24	222	18	7.4221751260776
24	257	19	2.8298121443499
24	259	20	1.8359013100526
24	296	21	1.9272118037584
24	298	22	1.8264910266966
24	336	23	1.7731570813911
24	338	24	1.8050958468359
24	376	25	1.8019031629654
24	378	26	1.8725806391293
24	418	27	2.0255422754474
24	420	28	1.8193896864997
24	462	29	2.0366725650512
24	464	30	1.8599189826534
24	507	31	1.8526149529095
24	509	32	1.7154241454235
24	554	33	0.973
24	556	34	0.973
24	605	35	6.303427561984
24	607	36	7.0154445701984
24	654	37	8.3105242583869
24	656	38	5.6895407911334
24	704	39	1.8694269918782
24	706	40	1.940528745875
24	756	41	2.1299480592744
24	758	42	1.8991694406835
24	808	43	2.1091372507868
24	810	44	2.0864880630902
24	863	45	1.9308080812489
24	865	46	2.2090898398184
24	922	47	2.0528811368149
24	924	48	1.7292056532406
24	978	49	2.1177127068995
24	980	50	2.0873649665686
24	1036	51	1.9327741224938
24	1038	52	2.1530281120875
24	1101	53	2.1466978352857
24	1103	54	1.7825965253946
24	1169	55	2.0002810933209
24	1171	56	2.1714609797662
24	1238	57	1.999553894506
24	1240	58	2.1154986829051
24	1314	59	1.8470270282863
24	1316	60	2.2631030576132
24	1394	61	2.0727204260443
24	1396	62	1.8602543209442
24	1476	63	2.1861282607859
24	1478	64	2.0738417857687
24	1568	65	2.0479224526271
24	1570	66	1.8719038420292
24	1664	67	2.237740187174
24	1666	68	1.9511766336835
24	1762	69	1.8314175593046
24	1764	70	1.9493699794006
24	1866	71	2.2846833100323
24	1868	72	1.8870266347629
24	1967	73	2.2554324657204
24	1969	74	1.7683289252042
24	2069	75	2.1393135082333
24	2071	76	1.9693351041569
24	2176	77	1.9410484918255
24	2178	78	2.0307471316685
24	2284	79	2.213052394446
24	2286	80	1.9101682516725
24	2397	81	2.3241703998575
24	2399	82	1.7415194485398
24	2525	83	2.1432480945603
24	2527	84	1.8820953915874
24	2657	85	2.3199805746165
24	2659	86	0.973
24	2788	87	0.973
24	2790	88	6.2543312855333
24	2924	89	6.7535979868512
24	2926	90	7.9981972462927
24	3063	91	5.1739394581234
24	3065	92	1.9532582730095
24	3205	93	2.1372207993622
24	3207	94	1.9999450642856
24	3353	95	1.9705512052998
24	3355	96	1.890303919516
24	3506	97	1.9672456517893
24	3508	98	1.9628961485411
24	3660	99	2.0322289506122
24	3662	100	2.1057121508415
25	186	16	2414.866372544
25	220	17	2411.9174920589
25	222	18	2407.1873548935
25	257	19	2402.1033929951
25	259	20	2395.6770685576
25	296	21	2387.9239549194
25	298	22	2378.7440047435
25	336	23	2368.9560721758
25	338	24	2359.1622850237
25	376	25	2349.3790714815
25	378	26	2340.0066479368
25	418	27	2334.2982135796
25	420	28	2338.9199148722
25	462	29	2349.5394145362
25	464	30	2359.6285321664
25	507	31	2372.2737052037
25	509	32	2385.1868441795
25	554	33	2397.5486702835
25	556	34	2407.0889696613
25	605	35	2415.9658388555
25	607	36	2423.647086352
25	654	37	2430.5697055
25	656	38	2432.1309365664
25	704	39	2433.9420996767
25	706	40	2436.0121670167
25	756	41	2438.0026650226
25	758	42	2438.973087457
25	808	43	2439.9357083738
25	810	44	2440.9457836029
25	863	45	2441.9557050534
25	865	46	2442.966328533
25	922	47	2443.9770825638
25	924	48	2444.9875938372
25	978	49	2445.9973880129
25	980	50	2447.0079984484
25	1036	51	2448.0195114657
25	1038	52	2449.0300190145
25	1101	53	2450.0409876643
25	1103	54	2450.2291497608
25	1169	55	2449.1158151244
25	1171	56	2448.0031307412
25	1238	57	2446.8896077783
25	1240	58	2445.7771886681
25	1314	59	2444.6627922727
25	1316	60	2443.5487240007
25	1394	61	2442.4356510476
25	1396	62	2441.3226709429
25	1476	63	2440.2525785718
25	1478	64	2439.3108728111
25	1568	65	2438.5962522177
25	1570	66	2436.7990822749
25	1664	67	2429.1662416559
25	1666	68	2417.0518166292
25	1762	69	2403.4340603166
25	1764	70	2389.5047204611
25	1866	71	2375.5916553084
25	1868	72	2361.6469742537
25	1967	73	2347.7140670773
25	1969	74	2333.7898680173
25	2069	75	2319.8688041087
25	2071	76	2305.9591036874
25	2176	77	2292.0364868315
25	2178	78	2278.1079656912
25	2284	79	2264.1876915417
25	2286	80	2250.264247493
25	2397	81	2236.4483706289
25	2399	82	2222.6317865221
25	2525	83	2209.1465974182
25	2527	84	2195.957879093
25	2657	85	2182.7524497161
25	2659	86	2170.4898803225
25	2788	87	2160.8078469398
25	2790	88	2151.7062874045
25	2924	89	2144.267903639
25	2926	90	2138.2021703735
25	3063	91	2131.7268413273
25	3065	92	2123.9337107464
25	3205	93	2114.8261187817
25	3207	94	2105.2889673712
25	3353	95	2095.7687529858
25	3355	96	2086.2212588029
25	3506	97	2076.6889911232
25	3508	98	2067.1506837173
25	3660	99	2057.6142178632
25	3662	100	2048.1079588311
26	186	16	1578.4544820301
26	220	17	1579.5372955538
26	222	18	1581.5276954006
26	257	19	1586.6770484103
26	259	20	1593.1860297397
26	296	21	1601.0388657451
26	298	22	1610.3368905932
26	336	23	1620.2507178467
26	338	24	1630.1704749865
26	376	25	1640.0795225166
26	378	26	1650.3859643145
26	418	27	1662.6340421
26	420	28	1674.572302388
26	462	29	1683.5553562185
26	464	30	1692.6539752008
26	507	31	1695.658621354
26	509	32	1697.3425149294
26	554	33	1698.5437799906
26	556	34	1699.4458790058
26	605	35	1700.285246267
26	607	36	1700.9566909699
26	654	37	1703.861074903
26	656	38	1713.8453156259
26	704	39	1725.7636898225
26	706	40	1739.3857854959
26	756	41	1753.170717068
26	758	42	1767.0707531869
26	808	43	1780.9598423252
26	810	44	1794.8503685482
26	863	45	1808.7387800114
26	865	46	1822.6368457591
26	922	47	1836.5367068434
26	924	48	1850.4332295349
26	978	49	1864.3198907189
26	980	50	1878.2177770855
26	1036	51	1892.128075731
26	1038	52	1906.0245472016
26	1101	53	1919.9273597188
26	1103	54	1933.8175707525
26	1169	55	1947.7134334734
26	1171	56	1961.6011801884
26	1238	57	1975.4993934687
26	1240	58	1989.3838292314
26	1314	59	2003.2929440839
26	1316	60	2017.1979635302
26	1394	61	2031.0905601038
26	1396	62	2044.9819978084
26	1476	63	2058.9055836303
26	1478	64	2072.8190275338
26	1568	65	2086.7368559008
26	1570	66	2100.5148639437
26	1664	67	2112.1094423961
26	1666	68	2118.8584406646
26	1762	69	2120.7722106203
26	1764	70	2120.3017352335
26	1866	71	2119.8318095375
26	1868	72	2119.3608159879
26	1967	73	2118.8902201112
26	1969	74	2118.4199183583
26	2069	75	2117.9497224977
26	2071	76	2117.4799104491
26	2176	77	2117.0096621364
26	2178	78	2116.5392144015
26	2284	79	2116.0690452158
26	2286	80	2115.5987689644
26	2397	81	2113.9554827726
26	2399	82	2111.9961843556
26	2525	83	2108.7254703417
26	2527	84	2104.2524711639
26	2657	85	2099.773804375
26	2659	86	2093.6835137587
26	2788	87	2087.9838535804
26	2790	88	2082.6259091906
26	2924	89	2078.2470501158
26	2926	90	2074.2507629106
26	3063	91	2067.5137716094
26	3065	92	2059.1945960047
26	3205	93	2049.4722314049
26	3207	94	2039.2913116151
26	3353	95	2029.1284721196
26	3355	96	2018.9365114095
26	3506	97	2008.760805008
26	3508	98	1998.5786511926
26	3660	99	1988.3984632362
26	3662	100	1978.2505210955
27	220	17	4.11254450365
27	222	18	6.0975231633921
27	257	19	8.1241239797909
27	259	20	10.018434339895
27	296	21	11.94044197294
27	298	22	13.966010854098
27	336	23	13.99429374554
27	338	24	13.992908905046
27	376	25	13.889738958394
27	378	26	13.996094578244
27	418	27	13.943261206169
27	420	28	13.961094655516
27	462	29	13.829256838197
27	464	30	13.436515939642
27	507	31	13.16217219069
27	509	32	12.955925744517
27	554	33	11.26758099839
27	556	34	8.5044873526649
27	605	35	9.3420117710427
27	607	36	6.9079266154914
27	654	37	9.1319836530982
27	656	38	10.970689421588
27	704	39	12.982363875891
27	706	40	13.992697958478
27	756	41	13.936582251703
27	758	42	13.977668084782
27	808	43	13.986179260183
27	810	44	13.884867181559
27	863	45	13.927137885792
27	865	46	13.910710662541
27	922	47	13.909766360957
27	924	48	13.940070941378
27	978	49	13.877076953631
27	980	50	13.90827997843
27	1036	51	13.954862964205
27	1038	52	13.893197995736
27	1101	53	13.963183217549
27	1103	54	13.948198468271
27	1169	55	13.944161438567
27	1171	56	13.928642164022
27	1238	57	13.919632288448
27	1240	58	13.893341971666
27	1314	59	13.941880325
27	1316	60	13.998108282317
27	1394	61	13.878701872779
27	1396	62	13.982008344322
27	1476	63	13.95228849458
27	1478	64	13.945977008874
27	1568	65	13.898765254379
27	1570	66	13.884750159571
27	1664	67	13.956998247474
27	1666	68	13.973321173731
[...]
118	2926	90	0.032535049447326
118	3063	91	-0.070158187691122
118	3065	92	0.029388548589777
118	3205	93	-1.8757059074481
118	3207	94	-0.9258559318423
118	3353	95	1.9234415695397
118	3355	96	2.0294341745344
118	3506	97	0.90885523832348
118	3508	98	0.07860482312506
118	3660	99	-0.057745042385067
118	3662	100	-0.042713786470705
119	1868	72	4.1959838790125
119	1967	73	4.9337141016577
119	1969	74	6.1139389675705
119	2069	75	3.1802109976683
119	2071	76	1.8480374430506
119	2176	77	1.7196341081864
119	2178	78	1.5842237541346
119	2284	79	1.8703075779173
119	2286	80	1.5193220070009
119	2397	81	1.7415501691917
119	2399	82	1.9399222969325
119	2525	83	1.645395562495
119	2527	84	1.6061704388764
119	2657	85	1.6067951515463
119	2659	86	1.9909966746953
119	2788	87	1.5406131955875
119	2790	88	1.588914106939
119	2924	89	1.8844244174704
119	2926	90	1.7961302413889
119	3063	91	1.5347526630244
119	3065	92	1.7847829102436
119	3205	93	0.973
119	3207	94	0.973
119	3353	95	6.0346671194377
119	3355	96	7.429044537753
119	3506	97	4.6026491194532
119	3508	98	2.1286878310044
119	3660	99	1.7139256633566
119	3662	100	1.7555047211369
120	1967	73	2414.8769514603
120	1969	74	2411.9119199329
120	2069	75	2407.298265514
120	2071	76	2402.4443862444
120	2176	77	2396.2601480235
120	2178	78	2388.6069567787
120	2284	79	2379.616833211
120	2286	80	2370.4989479294
120	2397	81	2361.4831209757
120	2399	82	2352.8745644127
120	2525	83	2344.584524505
120	2527	84	2337.3469447539
120	2657	85	2334.0507973665
120	2659	86	2337.7727678836
120	2788	87	2346.1215699003
120	2790	88	2354.0427688364
120	2924	89	2362.1722437108
120	2926	90	2372.5817572308
120	3063	91	2382.9743972272
120	3065	92	2393.3520429343
120	3205	93	2403.5173871535
120	3207	94	2411.6344785336
120	3353	95	2420.0532843431
120	3355	96	2426.9178345029
120	3506	97	2431.1677155331
120	3508	98	2432.7641470251
120	3660	99	2434.6617136167
120	3662	100	2436.7278075132
121	1967	73	1578.4505975069
121	1969	74	1579.5393416099
121	2069	75	1581.4153582221
121	2071	76	1586.3316692254
121	2176	77	1592.5954505689
121	2178	78	1600.3470789557
121	2284	79	1609.4528356018
121	2286	80	1618.6879972629
121	2397	81	1627.8197878981
121	2399	82	1636.5390697354
121	2525	83	1644.9357380811
121	2527	84	1653.7907983502
121	2657	85	1664.1240785467
121	2659	86	1673.6459122086
121	2788	87	1680.4730583178
121	2790	88	1687.6165939225
121	2924	89	1694.1487718867
121	2926	90	1695.7046654029
121	3063	91	1697.0791843673
121	3065	92	1698.1469608499
121	3205	93	1699.1081620287
121	3207	94	1699.8756872239
121	3353	95	1700.6717415331
121	3355	96	1701.1754320581
121	3506	97	1707.5068314532
121	3508	98	1718.0121624153
121	3660	99	1730.4991154522
121	3662	100	1744.0950638475
122	1969	74	4.0735588402093
122	2069	75	5.8290612863471
122	2071	76	7.862662603839
122	2176	77	9.6879727271526
122	2178	78	11.944467225839
122	2284	79	12.953456134841
122	2286	80	12.998777343629
122	2397	81	12.605227840698
122	2399	82	12.014084930552
122	2525	83	11.584700541917
122	2527	84	11.358179795498
122	2657	85	11.081834647454
122	2659	86	10.873275918259
122	2788	87	10.736084915775
122	2790	88	10.63591405961
122	2924	89	10.523848222295
122	2926	90	10.526772059941
122	3063	91	10.452888306051
122	3065	92	10.51179650067
122	3205	93	9.3790595169786
122	3207	94	8.004374790515
122	3353	95	7.873219162175
122	3355	96	7.5998815443674
122	3506	97	9.4599433054384
122	3508	98	11.517685376856
122	3660	99	13.473405913325
122	3662	100	13.683893160937
123	2069	75	1.7555024461378
123	2071	76	2.0336013174918
123	2176	77	1.8253101233137
123	2178	78	2.2564944986859
123	2284	79	1.0089889090025
123	2286	80	0.045321208788081
123	2397	81	-0.39354950293097
123	2399	82	-0.59114291014626
123	2525	83	-0.42938438863522
123	2527	84	-0.22652074641895
123	2657	85	-0.27634514804333
123	2659	86	-0.20855872919588
123	2788	87	-0.13719100248404
123	2790	88	-0.10017085616436
123	2924	89	-0.11206583731538
123	2926	90	0.0029238376466658
123	3063	91	-0.073883753890836
123	3065	92	0.058908194619304
123	3205	93	-1.1327369836913
123	3207	94	-1.3746847264637
123	3353	95	-0.13115562833998
123	3355	96	-0.27333761780756
123	3506	97	1.860061761071
123	3508	98	2.0577420714172
123	3660	99	1.955720536469
123	3662	100	0.21048724761262
124	2069	75	3.8756268936732
124	2071	76	5.3876730590065
124	2176	77	5.9230829630863
124	2178	78	8.3392083846763
124	2284	79	5.0855033372062
124	2286	80	2.0819381521331
124	2397	81	0.973
124	2399	82	0.973
124	2525	83	0.973
124	2527	84	1.1732211916124
124	2657	85	0.973
124	2659	86	1.2067626787784
124	2788	87	1.3872581391992
124	2790	88	1.4774598654094
124	2924	89	1.4411141705942
124	2926	90	1.7329893104806
124	3063	91	1.5336304471824
124	3065	92	1.8736246631636
124	3205	93	0.973
124	3207	94	0.973
124	3353	95	1.2860281489778
124	3355	96	0.973
124	3506	97	5.8852083363397
124	3508	98	7.5185616708945
124	3660	99	8.3363054247112
124	3662	100	2.7009615781327
125	2071	76	2414.8732395561
125	2176	77	2411.9082769358
125	2178	78	2407.1655617389
125	2284	79	2402.128447905
125	2286	80	2395.6944575682
125	2397	81	2387.9337748789
125	2399	82	2378.7673655167
125	2525	83	2368.9823548129
125	2527	84	2359.2122518424
125	2657	85	2349.4316794267
125	2659	86	2340.0865105919
125	2788	87	2334.4174806303
125	2790	88	2337.3964307201
125	2924	89	2346.779458549
125	2926	90	2355.4684120667
125	3063	91	2364.8614375427
125	3065	92	2375.8768930668
125	3205	93	2386.6608137578
125	3207	94	2395.9118711601
125	3353	95	2404.9942213678
125	3355	96	2412.8460554772
125	3506	97	2420.9961528053
125	3508	98	2428.303043043
125	3660	99	2431.502013637
125	3662	100	2433.1993047486
126	2071	76	1578.4519604994
126	2176	77	1579.5406792993
126	2178	78	1581.5497688642
126	2284	79	1586.6516712382
126	2286	80	1593.1684170682
126	2397	81	1601.0289194789
126	2399	82	1610.3132293485
126	2525	83	1620.224097156
126	2527	84	1630.1198654827
126	2657	85	1640.0262379153
126	2659	86	1650.2837276859
126	2788	87	1661.9157696376
126	2790	88	1673.341997317
126	2924	89	1681.0663587796
126	2926	90	1688.9022746962
126	3063	91	1694.5507214339
126	3065	92	1696.1971841427
126	3205	93	1697.5142604476
126	3207	94	1698.389009703
126	3353	95	1699.2478065658
126	3355	96	1699.990249915
126	3506	97	1700.7608960429
126	3508	98	1701.42591283
126	3660	99	1709.7066829596
126	3662	100	1720.8757215021
127	2176	77	4.0635240824116
127	2178	78	6.1144633837571
127	2284	79	8.1038544815257
127	2286	80	10.046968652414
127	2397	81	11.926067483762
127	2399	82	13.892129573808
127	2525	83	13.936045407304
127	2527	84	13.893183273086
127	2657	85	13.889124961388
127	2659	86	13.833042053432
127	2788	87	13.039664782253
127	2790	88	12.451307082409
127	2924	89	11.996588498561
127	2926	90	11.530198338915
127	3063	91	11.235030325332
127	3065	92	10.984342136566
127	3205	93	10.439727170964
127	3207	94	8.8718913847214
127	3353	95	8.899018514631
127	3355	96	7.9909682415293
127	3506	97	7.251207953206
127	3508	98	8.3496564380611
127	3660	99	10.181845001406
127	3662	100	12.06212957381
128	2178	78	2.0509393013455
128	2284	79	1.9893910977687
128	2286	80	1.9431141708884
128	2397	81	1.8790988313477
128	2399	82	1.9660620900462
128	2525	83	0.043915833495557
128	2527	84	-0.042862134217286
128	2657	85	-0.0040583116980262
128	2659	86	-0.056082907956462
128	2788	87	-0.79337727117912
128	2790	88	-0.5883576998438
128	2924	89	-0.45471858384756
128	2926	90	-0.46639015964645
128	3063	91	-0.29516801358278
128	3065	92	-0.2506881887658
128	3205	93	-0.5446149656022
128	3207	94	-1.5678357862427
128	3353	95	0.027127129909662
128	3355	96	-0.90805027310174
128	3506	97	-0.73976028832329
128	3508	98	1.0984484848551
128	3660	99	1.8321885633445
128	3662	100	1.8802845724043
129	2178	78	4.4483142439603
129	2284	79	5.4354323508198
129	2286	80	6.3932525708783
129	2397	81	7.2428843983977
129	2399	82	8.6102118406059
129	2525	83	2.1797995320176
129	2527	84	1.884423361701
129	2657	85	2.0139397067959
129	2659	86	1.8348652346028
129	2788	87	0.973
129	2790	88	0.973
129	2924	89	0.973
129	2926	90	0.973
129	3063	91	0.973
129	3065	92	0.973
129	3205	93	0.973
129	3207	94	0.973
129	3353	95	1.6625699209631
129	3355	96	0.973
129	3506	97	0.973
129	3508	98	3.7769340489537
129	3660	99	6.1945523237183
129	3662	100	7.3199370532578
130	2284	79	2414.8461739381
130	2286	80	2411.9468780267
130	2397	81	2407.2557718946
130	2399	82	2402.3132644872
130	2525	83	2396.0984851476
130	2527	84	2388.637281624
130	2657	85	2379.8467096724
130	2659	86	2370.3468173424
130	2788	87	2360.8653239175
130	2790	88	2351.3807753129
130	2924	89	2342.0413825306
130	2926	90	2334.9106088879
130	3063	91	2335.806685818
130	3065	92	2346.1647764894
130	3205	93	2356.1929522194
130	3207	94	2367.8342028816
130	3353	95	2380.4529642189
130	3355	96	2391.5788251292
130	3506	97	2402.0468870559
130	3508	98	2411.2653876449
130	3660	99	2420.3791153014
130	3662	100	2427.5282855921
131	2284	79	1578.4618988531
131	2286	80	1579.5265051797
131	2397	81	1581.4583984045
131	2399	82	1586.4644775018
131	2525	83	1592.7591927908
131	2527	84	1600.3163640648
131	2657	85	1609.2200024156
131	2659	86	1618.8420845894
131	2788	87	1628.4455312071
131	2790	88	1638.0520723006
131	2924	89	1647.7811873443
131	2926	90	1658.945959907
131	3063	91	1671.8741231887
131	3065	92	1680.5120231025
131	3205	93	1689.5556831537
131	3207	94	1694.9950559661
131	3353	95	1696.77907757
131	3355	96	1697.9792912649
131	3506	97	1698.9691164251
131	3508	98	1699.8407872161
131	3660	99	1700.7025510259
131	3662	100	1701.2752542486
132	2286	80	4.0267229073465
132	2397	81	5.9477333564631
132	2399	82	7.8212407105433
132	2525	83	9.6026732088782
132	2527	84	11.466286668062
132	2657	85	13.286947636499
132	2659	86	13.562368140693
132	2788	87	13.529235902293
132	2790	88	13.455384539605
132	2924	89	13.491060158082
132	2926	90	13.50869829942
132	3063	91	13.486902267623
132	3065	92	13.544100182424
132	3205	93	13.452367220111
132	3207	94	13.197152949202
132	3353	95	12.369179322584
132	3355	96	10.620125388396
132	3506	97	9.8273371705674
132	3508	98	9.4698311382702
132	3660	99	7.6697963725872
132	3662	100	8.0874702711244
133	2397	81	1.9210104491166
133	2399	82	1.8735073540802
133	2525	83	1.7814324983349
133	2527	84	1.8636134591838
133	2657	85	1.8206609684369
133	2659	86	0.27542050419428
133	2788	87	-0.033132238399704
133	2790	88	-0.073851362688
133	2924	89	0.035675618476233
133	2926	90	0.017638141338248
133	3063	91	-0.021796031796839
133	3065	92	0.057197914801073
133	3205	93	-0.091732962313108
133	3207	94	-0.2552142709088
133	3353	95	-0.82797362661822
133	3355	96	-1.7490539341879
133	3506	97	-0.79278821782881
133	3508	98	-0.35750603229719
133	3660	99	-1.800034765683
133	3662	100	0.41767389853718
134	2397	81	4.1699391246736
134	2399	82	5.0629039791787
134	2525	83	5.7777020757503
134	2527	84	6.9522613836103
134	2657	85	7.7976945860273
134	2659	86	2.8949203803963
134	2788	87	1.8833876959034
134	2790	88	1.7446470970948
134	2924	89	2.1036379544754
134	2926	90	2.0468085785174
134	3063	91	1.9163893625158
134	3065	92	2.1795901060915
134	3205	93	1.6864313721965
134	3207	94	1.1472491504976
134	3353	95	0.973
134	3355	96	0.973
134	3506	97	0.973
134	3508	98	0.973
134	3660	99	0.973
134	3662	100	2.3630859974637
135	2399	82	2414.8840517174
135	2525	83	2412.0108083608
135	2527	84	2407.4277382374
135	2657	85	2402.5740833235
135	2659	86	2396.4932427702
135	2788	87	2389.0606667105
135	2790	88	2380.2840013043
135	2924	89	2370.5628811797
135	2926	90	2360.7775907384
135	3063	91	2350.9979958944
135	3065	92	2341.4452241245
135	3205	93	2334.6822450395
135	3207	94	2337.1085663075
135	3353	95	2347.8320722521
135	3355	96	2358.1756817488
135	3506	97	2370.9685135448
135	3508	98	2384.315308983
135	3660	99	2396.8448967066
135	3662	100	2407.2495121727
136	2399	82	1578.4479903299
136	2525	83	1579.5030302955
136	2527	84	1581.2842201898
136	2657	85	1586.2003039522
136	2659	86	1592.3593577035
136	2788	87	1599.8875332996
136	2790	88	1608.7770862356
136	2924	89	1618.6232416881
136	2926	90	1628.5343928309
136	3063	91	1638.4397751177
136	3065	92	1648.5443628915
136	3205	93	1660.3212556215
136	3207	94	1673.1095294924
136	3353	95	1682.0156321824
136	3355	96	1691.3437583046
136	3506	97	1695.4635364218
136	3508	98	1697.2387827905
136	3660	99	1698.4772334993
136	3662	100	1699.4610593719
137	2525	83	3.8169569386458
137	2527	84	5.8201201644269
137	2657	85	7.6568561983863
137	2659	86	9.4728654203107
137	2788	87	11.482040745815
137	2790	88	13.28880034773
137	2924	89	13.928496107168
137	2926	90	13.959875884824
137	3063	91	13.889444849875
137	3065	92	13.92365738506
137	3205	93	13.981699167432
137	3207	94	13.93769388142
137	3353	95	13.966332683004
137	3355	96	13.932506729781
137	3506	97	13.916154631726
137	3508	98	13.153427309647
137	3660	99	11.570929406253
137	3662	100	10.432373373366
138	2527	84	2.0031632257812
138	2657	85	1.8367360339593
138	2659	86	1.8160092219245
138	2788	87	2.009175325504
138	2790	88	1.8067596019153
138	2924	89	0.63969575943801
138	2926	90	0.031379777656403
138	3063	91	-0.070431034949143
138	3065	92	0.034212535184343
138	3205	93	0.058041782372165
138	3207	94	-0.044005286011378
138	3353	95	0.02863880158402
138	3355	96	-0.033825953223277
138	3506	97	-0.01635209805565
138	3508	98	-0.76272732207853
138	3660	99	-1.5824979033941
138	3662	100	-1.1385560328864
139	2527	84	4.2187098686395
139	2657	85	4.910169108938
139	2659	86	5.791375069684
139	2788	87	7.3634665133753
139	2790	88	7.7541670228011
139	2924	89	4.1788440727956
139	2926	90	2.1403107369706
139	3063	91	1.7917987802914
139	3065	92	2.1458442449271
139	3205	93	2.2325490149334
139	3207	94	1.8846595852561
139	3353	95	2.1317941083911
139	3355	96	1.9183647077544
139	3506	97	1.9754342330866
139	3508	98	0.973
139	3660	99	0.973
139	3662	100	0.973
140	2657	85	2414.8736667775
140	2659	86	2411.9596294151
140	2788	87	2407.2080569622
140	2790	88	2402.1523542702
140	2924	89	2395.9190397914
140	2926	90	2388.3765358754
140	3063	91	2379.4748098332
140	3065	92	2369.6962625302
140	3205	93	2359.9308093331
140	3207	94	2350.1364718492
140	3353	95	2340.6805613053
140	3355	96	2334.4833669321
140	3506	97	2338.0362796045
140	3508	98	2348.6981854652
140	3660	99	2359.0649976305
140	3662	100	2372.1668423832
141	2657	85	1578.4518036256
141	2659	86	1579.5218229368
141	2788	87	1581.5067270575
141	2790	88	1586.6274573831
141	2924	89	1592.9409462158
141	2926	90	1600.5804635864
141	3063	91	1609.5966857178
141	3065	92	1619.5010069897
141	3205	93	1629.3920657374
141	3207	94	1639.3123802878
141	3353	95	1649.5232503135
141	3355	96	1661.5189767601
141	3506	97	1673.8587137703
141	3508	98	1682.7967147715
141	3660	99	1692.1457656417
141	3662	100	1695.6426487369
142	2659	86	4.0343364698305
142	2788	87	6.1070091192196
142	2790	88	7.9887447326775
142	2924	89	9.6134468203811
142	2926	90	11.695927346992
142	3063	91	13.549136951841
142	3065	92	13.891744130468
142	3205	93	13.983072519409
142	3207	94	13.933561631758
142	3353	95	13.880611653517
142	3355	96	13.92297302613
142	3506	97	13.914829877054
142	3508	98	13.897545429696
142	3660	99	13.983295602682
142	3662	100	13.872217488389
143	2788	87	2.0726726493891
143	2790	88	1.8817356134579
143	2924	89	1.6247020877036
143	2926	90	2.0824805266107
143	3063	91	1.8532096048491
143	3065	92	0.34260717862705
143	3205	93	0.091328388941474
143	3207	94	-0.049510887651705
143	3353	95	-0.05294997824123
143	3355	96	0.042361372613813
143	3506	97	-0.0081431490764956
143	3508	98	-0.017284447357524
143	3660	99	0.085750172985717
143	3662	100	-0.11107811429305
144	2788	87	4.476179949182
144	2790	88	5.1653576997334
144	2924	89	5.4200034164505
144	2926	90	7.6919386656592
144	3063	91	8.0447510818254
144	3065	92	3.1748085237727
144	3205	93	2.3448821042799
144	3207	94	1.8657939236033
144	3353	95	1.8495287503317
144	3355	96	2.1731117278761
144	3506	97	2.0028329516069
144	3508	98	1.9704897131333
144	3660	99	2.3261114203532
144	3662	100	1.6544487458673
145	2790	88	2414.8836325099
145	2924	89	2411.986930697
145	2926	90	2407.369780679
145	3063	91	2402.59750627
145	3065	92	2396.4303103612
145	3205	93	2388.852558142
145	3207	94	2379.8589329049
145	3353	95	2370.0705877349
145	3355	96	2360.2918325015
145	3506	97	2350.4993704215
145	3508	98	2340.9974445211
145	3660	99	2334.5638607559
145	3662	100	2337.6635284805
146	2790	88	1578.4481442608
146	2924	89	1579.5117980484
146	2926	90	1581.3429232119
146	3063	91	1586.1765797343
146	3065	92	1592.4230995635
146	3205	93	1600.0983186094
146	3207	94	1609.2076219646
146	3353	95	1619.1218671268
146	3355	96	1629.0263990043
146	3506	97	1638.9448140291
146	3508	98	1649.1175904777
146	3660	99	1661.0342117166
146	3662	100	1673.5576948216
147	2924	89	4.0013211675714
147	2926	90	5.8143858679225
147	3063	91	7.5613634765687
147	3065	92	9.7458537510484
147	3205	93	11.704442393056
147	3207	94	13.710967943585
147	3353	95	13.967370514323
147	3355	96	13.97242824421
147	3506	97	13.999199340187
147	3508	98	13.962116121056
147	3660	99	13.933822563267
147	3662	100	13.901684735613
148	2926	90	1.8130647003511
148	3063	91	1.7469776086463
148	3065	92	2.1844902744796
148	3205	93	1.9585886420077
148	3207	94	2.0065255505289
148	3353	95	0.25640257073762
148	3355	96	0.0050577298877759
148	3506	97	0.026771095977166
148	3508	98	-0.037083219131455
148	3660	99	-0.028293557788711
148	3662	100	-0.032137827654369
149	2926	90	3.9492323757996
149	3063	91	4.6981943303404
149	3065	92	6.7964762074918
149	3205	93	7.3474754039101
149	3207	94	8.6397759745869
149	3353	95	2.8985913333218
149	3355	96	2.0530540416967
149	3506	97	2.1290860466151
149	3508	98	1.9101876746331
149	3660	99	1.9370663178208
149	3662	100	1.9211304105346
150	3063	91	2414.8606245739
150	3065	92	2411.8764565148
150	3205	93	2407.2247922372
150	3207	94	2402.2329132988
150	3353	95	2395.904481165
150	3355	96	2388.1911267573
150	3506	97	2379.0311558184
150	3508	98	2369.2309284883
150	3660	99	2359.4539213619
150	3662	100	2349.6644090366
151	3063	91	1578.4565926548
151	3065	92	1579.5523635913
151	3205	93	1581.4897765294
151	3207	94	1586.5458621858
151	3353	95	1592.9556920985
151	3355	96	1600.7682574801
151	3506	97	1610.0460461145
151	3508	98	1619.9723262675
151	3660	99	1629.8750875536
151	3662	100	1639.7905148827
152	3065	92	4.0929231651139
152	3205	93	5.9906896421535
152	3207	94	7.9514762463106
152	3353	95	9.9005059713463
152	3355	96	11.902643679642
152	3506	97	13.940859806718
152	3508	98	13.908840599209
152	3660	99	13.897563728902
152	3662	100	13.925334702113
153	3205	93	1.8977664770395
153	3207	94	1.9607866041572
153	3353	95	1.9490297250356
153	3355	96	2.0021377082961
153	3506	97	2.0382161270757
153	3508	98	-0.032019207509006
153	3660	99	-0.011276870307046
153	3662	100	0.027770973211155
154	3205	93	4.158764086306
154	3207	94	5.2974884507475
154	3353	95	6.3276769708033
154	3355	96	7.5831667564525
154	3506	97	8.880686804981
154	3508	98	1.9222012590366
154	3660	99	1.990612754222
154	3662	100	2.1244111998222
155	3207	94	2414.8345383538
155	3353	95	2411.7921256482
155	3355	96	2407.0864814951
155	3506	97	2402.132386612
155	3508	98	2395.7983188427
155	3660	99	2388.1195620884
155	3662	100	2379.0020808444
156	3207	94	1578.4661713783
156	3353	95	1579.5833294457
156	3355	96	1581.6298662564
156	3506	97	1586.6476818705
156	3508	98	1593.0632199049
156	3660	99	1600.8407426309
156	3662	100	1610.0754950577
157	3353	95	4.2052558286512
157	3355	96	6.002893242219
157	3506	97	7.883161900444
157	3508	98	9.8673883035709
157	3660	99	11.853042240334
157	3662	100	13.869080203711
158	3355	96	1.7976374135679
158	3506	97	1.880268658225
158	3508	98	1.984226403127
158	3660	99	1.9856539367628
158	3662	100	2.0160379633773
159	3355	96	4.0201994287793
159	3506	97	5.1077529096115
159	3508	98	6.3933259660444
159	3660	99	7.5078138857943
159	3662	100	8.7639896884138
160	3506	97	2414.8810770222
160	3508	98	2412.0153888349
160	3660	99	2407.3710593774
160	3662	100	2402.5073859703
161	3506	97	1578.4490826223
161	3508	98	1579.5013483688
161	3660	99	1581.3416280663
161	3662	100	1586.2678591823
162	3508	98	3.9195603011693
162	3660	99	5.8047475024131
162	3662	100	7.789297424702
163	3660	99	1.8851872012438
163	3662	100	1.9845499222889
164	3660	99	4.0453611473868
164	3662	100	5.2548522348047
165	3662	100	2414.8650521714
166	3662	100	1578.4549668636

