file 239499 1693418097                                          
version 2
run Default-0-20230830-17:54:52-19555
attr configname Default
attr datetime 20230830-17:54:52
attr experiment Default
attr inifile omnetpp.ini
attr iterationvars ""
attr iterationvarsf ""
attr measurement ""
attr network RSUExampleScenario
attr processid 19555
attr repetition 0
attr replication #0
attr resultdir results
attr runnumber 0
attr seedset 0
param *.playgroundSizeX 2500m
param *.playgroundSizeY 2500m
param *.playgroundSizeZ 50m
param *.annotations.draw true
param *.obstacles.obstacles "xmldoc(\"config.xml\", \"//AnalogueModel[@type='SimpleObstacleShadowing']/obstacles\")"
param *.manager.updateInterval 1s
param *.manager.host "\"localhost\""
param *.manager.port 9999
param *.manager.autoShutdown true
param *.manager.launchConfig "xmldoc(\"erlangen.launchd.xml\")"
param *.rsu[0].mobility.x 2000
param *.rsu[0].mobility.y 2000
param *.rsu[0].mobility.z 3
param *.rsu[*].applType "\"TraCIDemoRSU11p\""
param *.rsu[*].appl.headerLength "80 bit"
param *.rsu[*].appl.sendBeacons false
param *.rsu[*].appl.dataOnSch false
param *.rsu[*].appl.beaconInterval 1s
param *.rsu[*].appl.beaconUserPriority 7
param *.rsu[*].appl.dataUserPriority 5
param *.rsu[*].nic.phy80211p.antennaOffsetZ "0 m"
param *.connectionManager.sendDirect true
param *.connectionManager.maxInterfDist 2600m
param *.connectionManager.drawMaxIntfDist false
param *.**.nic.mac1609_4.useServiceChannel false
param *.**.nic.mac1609_4.txPower 20mW
param *.**.nic.mac1609_4.bitrate 6Mbps
param *.**.nic.phy80211p.minPowerLevel -110dBm
param *.**.nic.phy80211p.useNoiseFloor true
param *.**.nic.phy80211p.noiseFloor -98dBm
param *.**.nic.phy80211p.decider "xmldoc(\"config.xml\")"
param *.**.nic.phy80211p.analogueModels "xmldoc(\"config.xml\")"
param *.**.nic.phy80211p.usePropagationDelay true
param *.**.nic.phy80211p.antenna "xmldoc(\"antenna.xml\", \"/root/Antenna[@id='monopole']\")"
param *.node[*].nic.phy80211p.antennaOffsetY "0 m"
param *.node[*].nic.phy80211p.antennaOffsetZ "1.895 m"
param *.node[*].applType "\"TraCIDemo11p\""
param *.node[*].appl.headerLength "80 bit"
param *.node[*].appl.sendBeacons false
param *.node[*].appl.dataOnSch false
param *.node[*].appl.beaconInterval 1s
param *.node[*].veinsmobility.x 0
param *.node[*].veinsmobility.y 0
param *.node[*].veinsmobility.z 0
param *.node[*].veinsmobility.setHostSpeed false

vector 0 RSUExampleScenario.node[0].veinsmobility posx ETV
vector 1 RSUExampleScenario.node[0].veinsmobility posy ETV
vector 2 RSUExampleScenario.node[0].veinsmobility speed ETV
vector 3 RSUExampleScenario.node[0].veinsmobility acceleration ETV
vector 4 RSUExampleScenario.node[0].veinsmobility co2emission ETV
vector 5 RSUExampleScenario.node[1].veinsmobility posx ETV
vector 6 RSUExampleScenario.node[1].veinsmobility posy ETV
vector 7 RSUExampleScenario.node[1].veinsmobility speed ETV
vector 8 RSUExampleScenario.node[1].veinsmobility acceleration ETV
vector 9 RSUExampleScenario.node[1].veinsmobility co2emission ETV
vector 10 RSUExampleScenario.node[2].veinsmobility posx ETV
vector 11 RSUExampleScenario.node[2].veinsmobility posy ETV
vector 12 RSUExampleScenario.node[2].veinsmobility speed ETV
vector 13 RSUExampleScenario.node[2].veinsmobility acceleration ETV
vector 14 RSUExampleScenario.node[2].veinsmobility co2emission ETV
vector 15 RSUExampleScenario.node[3].veinsmobility posx ETV
vector 16 RSUExampleScenario.node[3].veinsmobility posy ETV
vector 17 RSUExampleScenario.node[3].veinsmobility speed ETV
vector 18 RSUExampleScenario.node[3].veinsmobility acceleration ETV
vector 19 RSUExampleScenario.node[3].veinsmobility co2emission ETV
vector 20 RSUExampleScenario.node[4].veinsmobility posx ETV
vector 21 RSUExampleScenario.node[4].veinsmobility posy ETV
vector 22 RSUExampleScenario.node[4].veinsmobility speed ETV
vector 23 RSUExampleScenario.node[4].veinsmobility acceleration ETV
vector 24 RSUExampleScenario.node[4].veinsmobility co2emission ETV
vector 25 RSUExampleScenario.node[5].veinsmobility posx ETV
vector 26 RSUExampleScenario.node[5].veinsmobility posy ETV
vector 27 RSUExampleScenario.node[5].veinsmobility speed ETV
vector 28 RSUExampleScenario.node[5].veinsmobility acceleration ETV
vector 29 RSUExampleScenario.node[5].veinsmobility co2emission ETV
vector 30 RSUExampleScenario.node[6].veinsmobility posx ETV
vector 31 RSUExampleScenario.node[6].veinsmobility posy ETV
vector 32 RSUExampleScenario.node[6].veinsmobility speed ETV
vector 33 RSUExampleScenario.node[6].veinsmobility acceleration ETV
vector 34 RSUExampleScenario.node[6].veinsmobility co2emission ETV
vector 35 RSUExampleScenario.node[7].veinsmobility posx ETV
vector 36 RSUExampleScenario.node[7].veinsmobility posy ETV
vector 37 RSUExampleScenario.node[7].veinsmobility speed ETV
vector 38 RSUExampleScenario.node[7].veinsmobility acceleration ETV
vector 39 RSUExampleScenario.node[7].veinsmobility co2emission ETV
vector 40 RSUExampleScenario.node[8].veinsmobility posx ETV
vector 41 RSUExampleScenario.node[8].veinsmobility posy ETV
vector 42 RSUExampleScenario.node[8].veinsmobility speed ETV
vector 43 RSUExampleScenario.node[8].veinsmobility acceleration ETV
vector 44 RSUExampleScenario.node[8].veinsmobility co2emission ETV
vector 45 RSUExampleScenario.node[9].veinsmobility posx ETV
vector 46 RSUExampleScenario.node[9].veinsmobility posy ETV
vector 47 RSUExampleScenario.node[9].veinsmobility speed ETV
vector 48 RSUExampleScenario.node[9].veinsmobility acceleration ETV
vector 49 RSUExampleScenario.node[9].veinsmobility co2emission ETV
vector 50 RSUExampleScenario.node[10].veinsmobility posx ETV
vector 51 RSUExampleScenario.node[10].veinsmobility posy ETV
vector 52 RSUExampleScenario.node[10].veinsmobility speed ETV
vector 53 RSUExampleScenario.node[10].veinsmobility acceleration ETV
vector 54 RSUExampleScenario.node[10].veinsmobility co2emission ETV
vector 55 RSUExampleScenario.node[11].veinsmobility posx ETV
vector 56 RSUExampleScenario.node[11].veinsmobility posy ETV
vector 57 RSUExampleScenario.node[11].veinsmobility speed ETV
vector 58 RSUExampleScenario.node[11].veinsmobility acceleration ETV
vector 59 RSUExampleScenario.node[11].veinsmobility co2emission ETV
vector 60 RSUExampleScenario.node[12].veinsmobility posx ETV
vector 61 RSUExampleScenario.node[12].veinsmobility posy ETV
vector 62 RSUExampleScenario.node[12].veinsmobility speed ETV
vector 63 RSUExampleScenario.node[12].veinsmobility acceleration ETV
vector 64 RSUExampleScenario.node[12].veinsmobility co2emission ETV
vector 65 RSUExampleScenario.node[13].veinsmobility posx ETV
vector 66 RSUExampleScenario.node[13].veinsmobility posy ETV
vector 67 RSUExampleScenario.node[13].veinsmobility speed ETV
vector 68 RSUExampleScenario.node[13].veinsmobility acceleration ETV
vector 69 RSUExampleScenario.node[13].veinsmobility co2emission ETV
vector 70 RSUExampleScenario.node[14].veinsmobility posx ETV
vector 71 RSUExampleScenario.node[14].veinsmobility posy ETV
vector 72 RSUExampleScenario.node[14].veinsmobility speed ETV
vector 73 RSUExampleScenario.node[14].veinsmobility acceleration ETV
vector 74 RSUExampleScenario.node[14].veinsmobility co2emission ETV
vector 75 RSUExampleScenario.node[15].veinsmobility posx ETV
vector 76 RSUExampleScenario.node[15].veinsmobility posy ETV
vector 77 RSUExampleScenario.node[15].veinsmobility speed ETV
vector 78 RSUExampleScenario.node[15].veinsmobility acceleration ETV
vector 79 RSUExampleScenario.node[15].veinsmobility co2emission ETV
vector 80 RSUExampleScenario.node[16].veinsmobility posx ETV
vector 81 RSUExampleScenario.node[16].veinsmobility posy ETV
vector 82 RSUExampleScenario.node[16].veinsmobility speed ETV
vector 83 RSUExampleScenario.node[16].veinsmobility acceleration ETV
vector 84 RSUExampleScenario.node[16].veinsmobility co2emission ETV
vector 85 RSUExampleScenario.node[17].veinsmobility posx ETV
vector 86 RSUExampleScenario.node[17].veinsmobility posy ETV
vector 87 RSUExampleScenario.node[17].veinsmobility speed ETV
vector 88 RSUExampleScenario.node[17].veinsmobility acceleration ETV
vector 89 RSUExampleScenario.node[17].veinsmobility co2emission ETV
vector 90 RSUExampleScenario.node[18].veinsmobility posx ETV
vector 91 RSUExampleScenario.node[18].veinsmobility posy ETV
vector 92 RSUExampleScenario.node[18].veinsmobility speed ETV
vector 93 RSUExampleScenario.node[18].veinsmobility acceleration ETV
vector 94 RSUExampleScenario.node[18].veinsmobility co2emission ETV
vector 95 RSUExampleScenario.node[19].veinsmobility posx ETV
vector 96 RSUExampleScenario.node[19].veinsmobility posy ETV
vector 97 RSUExampleScenario.node[19].veinsmobility speed ETV
vector 98 RSUExampleScenario.node[19].veinsmobility acceleration ETV
vector 99 RSUExampleScenario.node[19].veinsmobility co2emission ETV
vector 100 RSUExampleScenario.node[20].veinsmobility posx ETV
vector 101 RSUExampleScenario.node[20].veinsmobility posy ETV
vector 102 RSUExampleScenario.node[20].veinsmobility speed ETV
vector 103 RSUExampleScenario.node[20].veinsmobility acceleration ETV
vector 104 RSUExampleScenario.node[20].veinsmobility co2emission ETV
vector 105 RSUExampleScenario.node[21].veinsmobility posx ETV
vector 106 RSUExampleScenario.node[21].veinsmobility posy ETV
vector 107 RSUExampleScenario.node[21].veinsmobility speed ETV
vector 108 RSUExampleScenario.node[21].veinsmobility acceleration ETV
vector 109 RSUExampleScenario.node[21].veinsmobility co2emission ETV
vector 110 RSUExampleScenario.node[22].veinsmobility posx ETV
vector 111 RSUExampleScenario.node[22].veinsmobility posy ETV
vector 112 RSUExampleScenario.node[22].veinsmobility speed ETV
vector 113 RSUExampleScenario.node[22].veinsmobility acceleration ETV
vector 114 RSUExampleScenario.node[22].veinsmobility co2emission ETV
vector 115 RSUExampleScenario.node[23].veinsmobility posx ETV
vector 116 RSUExampleScenario.node[23].veinsmobility posy ETV
vector 117 RSUExampleScenario.node[23].veinsmobility speed ETV
vector 118 RSUExampleScenario.node[23].veinsmobility acceleration ETV
vector 119 RSUExampleScenario.node[23].veinsmobility co2emission ETV
vector 120 RSUExampleScenario.node[24].veinsmobility posx ETV
vector 121 RSUExampleScenario.node[24].veinsmobility posy ETV
vector 122 RSUExampleScenario.node[24].veinsmobility speed ETV
vector 123 RSUExampleScenario.node[24].veinsmobility acceleration ETV
vector 124 RSUExampleScenario.node[24].veinsmobility co2emission ETV
vector 125 RSUExampleScenario.node[25].veinsmobility posx ETV
vector 126 RSUExampleScenario.node[25].veinsmobility posy ETV
vector 127 RSUExampleScenario.node[25].veinsmobility speed ETV
vector 128 RSUExampleScenario.node[25].veinsmobility acceleration ETV
vector 129 RSUExampleScenario.node[25].veinsmobility co2emission ETV
vector 130 RSUExampleScenario.node[26].veinsmobility posx ETV
vector 131 RSUExampleScenario.node[26].veinsmobility posy ETV
vector 132 RSUExampleScenario.node[26].veinsmobility speed ETV
vector 133 RSUExampleScenario.node[26].veinsmobility acceleration ETV
vector 134 RSUExampleScenario.node[26].veinsmobility co2emission ETV
vector 135 RSUExampleScenario.node[27].veinsmobility posx ETV
vector 136 RSUExampleScenario.node[27].veinsmobility posy ETV
vector 137 RSUExampleScenario.node[27].veinsmobility speed ETV
vector 138 RSUExampleScenario.node[27].veinsmobility acceleration ETV
vector 139 RSUExampleScenario.node[27].veinsmobility co2emission ETV
vector 140 RSUExampleScenario.node[28].veinsmobility posx ETV
vector 141 RSUExampleScenario.node[28].veinsmobility posy ETV
vector 142 RSUExampleScenario.node[28].veinsmobility speed ETV
vector 143 RSUExampleScenario.node[28].veinsmobility acceleration ETV
vector 144 RSUExampleScenario.node[28].veinsmobility co2emission ETV
vector 145 RSUExampleScenario.node[29].veinsmobility posx ETV
vector 146 RSUExampleScenario.node[29].veinsmobility posy ETV
vector 147 RSUExampleScenario.node[29].veinsmobility speed ETV
vector 148 RSUExampleScenario.node[29].veinsmobility acceleration ETV
vector 149 RSUExampleScenario.node[29].veinsmobility co2emission ETV
vector 150 RSUExampleScenario.node[30].veinsmobility posx ETV
vector 151 RSUExampleScenario.node[30].veinsmobility posy ETV
vector 152 RSUExampleScenario.node[30].veinsmobility speed ETV
vector 153 RSUExampleScenario.node[30].veinsmobility acceleration ETV
vector 154 RSUExampleScenario.node[30].veinsmobility co2emission ETV
vector 155 RSUExampleScenario.node[31].veinsmobility posx ETV
vector 156 RSUExampleScenario.node[31].veinsmobility posy ETV
vector 157 RSUExampleScenario.node[31].veinsmobility speed ETV
vector 158 RSUExampleScenario.node[31].veinsmobility acceleration ETV
vector 159 RSUExampleScenario.node[31].veinsmobility co2emission ETV
vector 160 RSUExampleScenario.node[32].veinsmobility posx ETV
vector 161 RSUExampleScenario.node[32].veinsmobility posy ETV
vector 162 RSUExampleScenario.node[32].veinsmobility speed ETV
vector 163 RSUExampleScenario.node[32].veinsmobility acceleration ETV
vector 164 RSUExampleScenario.node[32].veinsmobility co2emission ETV
vector 165 RSUExampleScenario.node[33].veinsmobility posx ETV
vector 166 RSUExampleScenario.node[33].veinsmobility posy ETV
0	13059 2518 2 3662 1 100 100 1889.1253430418 2450.6248001783 227872.59401707 522477853.34272
1	15577 2522 2 3662 1 100 100 1578.4613427464 2120.9360540062 190844.30750602 367242992.36424
2	18099 2498 4 3662 2 100 99 4.1061966058897 13.999815066161 1307.492769718 17647.97102069
3	20597 2667 18 3662 3 100 98 -4.5 2.2078255666373 9.8501759392227 97.585841343487
4	23264 2441 18 3662 3 100 98 0.973 8.9023657158011 253.43444717401 922.50998968021
5	25705 2455 20 3662 4 100 97 1920.7111281679 2450.4780716181 222266.97461551 512047978.55669
6	28160 2450 20 3662 4 100 97 1578.4506684253 2120.5707901428 185347.51014715 357180104.64296
7	30610 2430 39 3662 5 100 96 4.0332649588119 13.999323605334 1263.3643507723 17005.078039931
8	33040 2616 41 3662 6 100 95 -4.4892687861132 2.0988350649318 9.9263084133761 86.786906762107
9	35656 2363 41 3662 6 100 95 0.973 8.7525284671264 242.90955622375 882.09141794669
10	38019 2475 60 3662 7 100 94 1948.3578532202 2450.659299592 216393.61911657 500510251.97714
11	40494 2470 60 3662 7 100 94 1578.4476927174 2120.9589145361 179796.03939923 346901108.16004
12	42964 2454 62 3662 8 100 93 3.930963162637 13.997537077854 1223.572678864 16454.579039523
13	45418 2630 86 3662 9 100 92 -4.4962264973393 2.0878022219194 10.05384457884 86.255626879514
14	48048 2373 86 3662 9 100 92 0.973 8.2469806235914 237.18380776255 863.15993551678
15	50421 2405 88 3662 10 100 91 1978.1503242605 2450.5176811377 210482.57954251 488842585.41179
16	52826 2410 88 3662 10 100 91 1578.4548774119 2120.90069908 174179.86975329 336379767.4451
17	55236 2386 118 3662 11 100 90 4.0076977833542 13.999869057706 1182.4179489724 15896.45390254
18	57622 2537 120 3662 12 100 89 -4.5 2.1600366940722 9.901165547383 93.677183260975
19	60159 2290 120 3662 12 100 89 0.973 8.3694083781091 233.62501463587 883.25005689685
20	62449 2333 150 3662 13 100 88 2024.081490968 2450.2645866362 205117.1531021 479611636.86742
21	64782 2328 150 3662 13 100 88 1578.4413889889 2120.7883864809 167898.60659249 323433603.16787
22	67110 2309 152 3662 14 100 87 4.1202440707026 13.992288785644 1118.0437053225 14724.062355412
23	69419 2471 184 3662 15 100 86 -4.4202670209802 2.2053875824949 9.7833163670764 82.483159197356
24	71890 2240 184 3662 15 100 86 0.973 8.3105242583869 221.14818346751 794.90200859771
25	74130 2251 186 3662 16 100 85 2048.1079588311 2450.2291497608 198759.52156772 466070091.31985
26	76381 2250 186 3662 16 100 85 1578.4544820301 2120.7722106203 162400.93011263 313308074.2385
27	78631 2221 220 3662 17 100 84 4.11254450365 13.998108282317 1084.4795599476 14392.566583925
28	80852 2369 222 3662 18 100 83 -4.1476450008758 2.2240570376068 9.7680218244085 89.684373037729
29	83221 2117 222 3662 18 100 83 0.973 8.8530434321966 220.9459450529 865.49714232401
30	85338 2180 257 3662 19 100 82 2075.2989622699 2450.4280289282 192587.68010458 453370933.33542
31	87518 2176 257 3662 19 100 82 1578.4572625495 2120.8566767089 156306.86105123 300977626.09977
32	89694 2145 259 3662 20 100 81 4.067372106413 13.999156328384 1043.2724749787 13804.433367026
33	91839 2280 296 3662 21 100 80 -4.5 2.4234314252366 9.8645463086254 95.884364666705
34	94119 2055 296 3662 21 100 80 0.973 7.9969762628647 212.62929382622 816.19658843431
35	96174 2095 298 3662 22 100 79 2146.691769112 2450.4365012295 187867.85093721 447282753.63522
36	98269 2099 298 3662 22 100 79 1578.4561478766 2120.6614999305 148678.95043569 282832422.71742
37	100368 2075 336 3662 23 100 78 4.0608742667126 13.999091608806 939.60226716776 11623.066213699
38	102443 2228 338 3662 24 100 77 -4.4823587748475 2.2555459074327 4.3203234462647 64.83968771951
39	104671 2013 338 3662 24 100 77 0.973 7.8139621935621 175.16107174117 528.11012257422
40	106684 2015 376 3662 25 100 76 2162.1260444111 2450.3239084678 181058.94085504 431787956.4226
41	108699 2022 376 3662 25 100 76 1578.4503688179 2120.8279265687 143092.656717 272295465.47694
42	110721 1991 378 3662 26 100 75 4.0643546214392 13.971221750486 921.8583710346 11639.771247334
43	112712 2119 418 3662 27 100 74 -3.3070113040032 2.2392650089366 6.0560317195613 57.977197299656
44	114831 1865 418 3662 27 100 74 0.973 8.1642209683009 175.61089176544 619.20433590372
45	116696 1939 420 3662 28 100 73 2177.9664114879 2450.5540833102 174226.00025958 416187905.8042
46	118635 1942 420 3662 28 100 73 1578.4516975414 2120.7919995487 137430.10874368 261488879.14721
47	120577 1914 462 3662 29 100 72 3.8828872453123 13.992728596821 904.50267814242 11681.122296325
48	122491 2020 464 3662 30 100 71 -2.5256712424416 2.1636936872965 7.3858951240894 54.09132168283
49	124511 1811 464 3662 30 100 71 0.973 8.0769545765064 174.76400466554 631.45317639798
50	126322 1861 507 3662 31 100 70 2195.6041878707 2450.3828549772 167313.83642479 400220048.63092
51	128183 1862 507 3662 31 100 70 1578.4486005865 2120.7039867258 131646.20621663 250237037.63647
52	130045 1833 509 3662 32 100 69 4.1947202222332 13.999046168965 886.0295117536 11672.482438526
53	131878 1946 554 3662 33 100 68 -3.1158763178945 2.2461710704397 7.9897627216745 56.777976232454
54	133824 1755 554 3662 33 100 68 0.973 8.8976355453378 173.99746779822 651.18480565193
55	135579 1785 556 3662 34 100 67 2222.8408779424 2450.2307157078 160468.96726886 384561915.64359
56	137364 1785 556 3662 34 100 67 1578.4356359942 2120.7777846977 125389.05964454 237208279.78676
57	139149 1754 605 3662 35 100 66 3.8489417596173 13.985598736692 858.87437253727 11453.733796106
58	140903 1882 607 3662 36 100 65 -3.7792833418176 2.3961217227788 10.023143825257 52.928245434865
59	142785 1713 607 3662 36 100 65 0.973 8.73746890554 166.48492381936 598.10114525679
60	144498 1708 654 3662 37 100 64 2270.1500966636 2450.6306422632 153814.51365024 369812430.60138
61	146206 1705 654 3662 37 100 64 1578.451217806 2120.9520459101 118866.68486795 223117809.93265
62	147911 1686 656 3662 38 100 63 3.9219617499206 13.999378900521 811.93476149084 10749.089688363
63	149597 1773 704 3662 39 100 62 -4.5 2.0558448842494 10.072587419597 51.088089519916
64	151370 1635 704 3662 39 100 62 0.973 8.3627117543138 158.98740009068 562.70685631624
65	153005 1630 706 3662 40 100 61 2304.5949123376 2450.1499671022 146937.46267144 354045535.23463
66	154635 1623 706 3662 40 100 61 1578.4448455973 2120.7260294929 112762.6634749 210602155.34599
67	156258 1601 756 3662 41 100 60 4.0161385181755 13.998249822583 776.79673582452 10337.539860994
68	157859 1706 758 3662 42 100 59 -2.3446006342261 2.0804082644917 9.8918290083088 41.465350565254
69	159565 1535 758 3662 42 100 59 0.973 8.5606523284014 154.05561623477 563.4892240071
70	161100 1551 808 3662 43 100 58 2334.4301713972 2450.6330954138 139958.26026113 337806315.09618
71	162651 1551 808 3662 43 100 58 1578.4619682319 2120.9558397355 106626.27046106 197966709.98446
72	164202 1527 810 3662 44 100 57 3.9992962979057 13.999124200887 742.68729110333 9946.5150579561
73	165729 1620 863 3662 45 100 56 -3.8456400924426 2.1980071439291 9.9880500614646 51.59443201223
74	167349 1480 863 3662 45 100 56 0.973 8.7718288962126 150.61640777082 584.67560893122
75	168829 1477 865 3662 46 100 55 2334.3497222776 2450.6169209509 132900.94411342 321204529.88066
76	170306 1475 865 3662 46 100 55 1578.4567965213 2120.934805207 100270.51774562 184497774.62059
77	171781 1452 922 3662 47 100 54 4.1510441398274 13.996701665553 700.69474291325 9360.0562020837
78	173233 1535 924 3662 48 100 53 -4.4635479538827 2.0671690396545 9.7893806484758 53.131600290127
79	174768 1392 924 3662 48 100 53 0.973 8.0918748703575 144.01496065097 561.19421294689
80	176160 1394 978 3662 49 100 52 2334.7865815668 2450.5254289502 125712.71030638 303980557.09468
81	177554 1398 978 3662 49 100 52 1578.4441374587 2115.7732735686 93848.10415176 170787533.26713
82	178952 1372 980 3662 50 100 51 3.8447853377257 13.994805302613 657.3982791064 8754.1002766999
83	180324 1444 1036 3662 51 100 50 -4.4674361181588 2.078282451923 10.098515798693 50.929994589709
84	181768 1317 1036 3662 51 100 50 0.973 8.7472268623497 137.12917752731 531.20320068019
85	183085 1318 1038 3662 52 100 49 2333.8836589833 2450.3597394241 118032.12211748 284391202.95411
86	184403 1316 1038 3662 52 100 49 1578.4585047252 1972.1751384698 85200.027642199 148789140.52634
87	185719 1288 1101 3662 53 100 48 3.8698786158062 12.0609251697 506.78504855791 5494.5364528673
88	187007 1365 1103 3662 54 100 47 -2.7754211128362 2.0160195135884 8.1159588823365 26.399804939044
89	188372 1250 1103 3662 54 100 47 0.973 6.7330751485819 105.05475189265 310.7059014197
90	189622 1237 1169 3662 55 100 46 2334.635949342 2450.4524190207 110797.93860135 266941391.11918
91	190859 1238 1169 3662 55 100 46 1578.4678993914 1954.9698814498 79799.400060587 138980705.01268
92	192097 1214 1171 3662 56 100 45 4.0700236807532 12.951351441674 488.38354565684 5465.0147712898
93	193311 1267 1238 3662 57 100 44 -1.9890481690938 2.3297191780875 7.874523555827 37.405464052713
94	194578 1119 1238 3662 57 100 44 0.973 8.3363783621892 105.19195020743 411.74620542215
95	195697 1153 1240 3662 58 100 43 2334.0024995889 2450.4624753713 103587.91729559 249605329.5126
96	196850 1159 1240 3662 58 100 43 1578.4570502462 1937.7138213255 74350.025241503 129027105.41036
97	198009 1131 1314 3662 59 100 42 3.8447639940612 13.489648629711 472.05861234163 5507.5005602521
98	199140 1176 1316 3662 60 100 41 -1.7387635858037 2.222100084126 8.1626922474427 37.953273030496
99	200316 995 1316 3662 60 100 41 0.973 8.3204552480567 102.37239648239 432.99266607228
100	201311 1116 1394 3662 61 100 40 2334.2278371524 2450.0593220248 96339.140876174 232084393.04174
101	202427 1114 1394 3662 61 100 40 1578.4478435991 1920.1794933323 68911.402165694 119114082.90763
102	203541 1088 1396 3662 62 100 39 4.018615917157 13.970749160051 455.40294716999 5551.2947564511
103	204629 1130 1476 3662 63 100 38 -2.198287774594 2.1492465194734 8.1685395009284 45.217504884905
104	205759 973 1476 3662 63 100 38 0.973 8.1667304192483 105.03600428668 481.8166618879
105	206732 1032 1478 3662 64 100 37 2333.8926936223 2448.1305136782 88947.761907317 213881275.27798
106	207764 1032 1478 3662 64 100 37 1578.4634011481 1893.6545750443 63175.574645534 108168697.38165
107	208796 1002 1568 3662 65 100 36 4.2842987557744 13.982297447908 428.86308574782 5308.5465717589
108	209798 1044 1570 3662 66 100 35 -2.965684290064 2.279591250075 9.6742820437219 42.170072992591
109	210842 957 1570 3662 66 100 35 0.973 8.0062312204286 101.22940429252 421.33584760166
110	211799 948 1664 3662 67 100 34 2334.1342350811 2446.1123458325 81714.374335519 196433503.32949
111	212747 951 1664 3662 67 100 34 1578.4618975855 1865.9007874299 57767.44846509 98377245.41625
112	213698 920 1666 3662 68 100 33 4.1832233416825 13.990375978411 401.30800963456 5113.5831707317
113	214618 949 1762 3662 69 100 32 -2.4922948446457 2.2485749843647 9.8071526367286 47.954326659545
114	215567 855 1762 3662 69 100 32 0.973 7.8311198804753 100.62454722418 477.66986948248
115	216422 864 1764 3662 70 100 31 2334.510232391 2438.9239543475 74061.627855602 176975175.73659
116	217286 863 1764 3662 70 100 31 1578.4517848091 1766.2100518262 51617.441073731 86036470.195635
117	218149 840 1866 3662 71 100 30 4.0859593419879 12.486085439863 300.47185852937 3101.8323748545
118	218989 864 1868 3662 72 100 29 -1.8757059074481 2.0294341745344 8.2996672690196 24.002914515031
119	219853 790 1868 3662 72 100 29 0.973 7.429044537753 73.236299656731 265.21219860987
120	220643 782 1967 3662 73 100 28 2334.0507973665 2436.7278075132 66848.316277052 159626093.76039
121	221425 785 1967 3662 73 100 28 1578.4505975069 1744.0950638475 46501.789144533 77298871.360679
122	222210 752 1969 3662 74 100 27 4.0735588402093 13.683893160937 279.24602667117 3025.5823739813
123	222962 762 2069 3662 75 100 26 -1.3746847264637 2.2564944986859 9.6103343207279 32.399235559825
124	223724 659 2069 3662 75 100 26 0.973 8.3392083846763 75.057158415258 372.98687414004
125	224383 697 2071 3662 76 100 25 2334.4174806303 2433.1993047486 59645.397509346 142326287.89936
126	225080 695 2071 3662 76 100 25 1578.4519604994 1720.8757215021 41395.24342001 68599787.092984
127	225775 670 2176 3662 77 100 24 4.0635240824116 13.936045407304 254.98197879525 2878.2513990482
128	226445 675 2178 3662 78 100 23 -1.5678357862427 2.0509393013455 7.9986054913984 33.119156553222
129	227120 544 2178 3662 78 100 23 0.973 8.6102118406059 68.727116586672 350.97610272191
130	227664 615 2284 3662 79 100 22 2334.9106088879 2427.5282855921 52399.739555133 124823821.90559
131	228279 614 2284 3662 79 100 22 1578.4618988531 1701.2752542486 36252.75663772 59786557.8719
132	228893 588 2286 3662 80 100 21 4.0267229073465 13.562368140693 231.42261381078 2722.2520187676
133	229481 586 2397 3662 81 100 20 -1.800034765683 1.9210104491166 4.0607473637778 25.238592546306
134	230067 511 2397 3662 81 100 20 0.973 7.7976945860273 54.591648844393 232.0286472381
135	230578 532 2399 3662 82 100 19 2334.6822450395 2414.8840517174 45163.695081116 107368763.32224
136	231110 533 2399 3662 82 100 19 1578.4479903299 1699.4610593719 31158.032082219 51134471.466303
137	231643 502 2525 3662 83 100 18 3.8169569386458 13.981699167432 212.13023122487 2669.2143572042
138	232145 499 2527 3662 84 100 17 -1.5824979033941 2.009175325504 6.6154164347207 22.791543295735
139	232644 445 2527 3662 84 100 17 0.973 7.7541670228011 53.356487067844 243.15731590921
140	233089 449 2657 3662 85 100 16 2334.4833669321 2414.8736667775 37972.857869958 90132454.856702
141	233538 449 2657 3662 85 100 16 1578.4518036256 1695.6426487369 26072.917429532 42513858.091429
142	233987 420 2659 3662 86 100 15 4.0343364698305 13.983295602682 178.26845280004 2274.0904649646
143	234407 414 2788 3662 87 100 14 -0.11107811429305 2.0824805266107 9.8378810185585 18.400495257682
144	234821 392 2788 3662 87 100 14 1.6544487458673 8.0447510818254 50.160238673675 243.22188846807
145	235213 360 2790 3662 88 100 13 2334.5638607559 2414.8836325099 30896.066275979 73438658.911326
146	235573 365 2790 3662 88 100 13 1578.4481442608 1673.5576948216 20998.011062569 33929474.34532
147	235938 336 2924 3662 89 100 12 4.0013211675714 13.999199340187 136.27495611841 1695.6008593323
148	236274 324 2926 3662 90 100 11 -0.037083219131455 2.1844902744796 9.9003635680416 19.043039466606
149	236598 309 2926 3662 90 100 11 1.9101876746331 8.6397759745869 44.280270116751 240.73433380069
150	236907 280 3063 3662 91 100 10 2349.6644090366 2414.8606245739 23877.670809252 57018959.263478
151	237187 281 3063 3662 91 100 10 1578.4565926548 1639.7905148827 16019.452519358 25666679.763661
152	237468 253 3065 3662 92 100 9 4.0929231651139 13.940859806718 95.510837541509 1130.4199451025
153	237721 233 3205 3662 93 100 8 -0.032019207509006 2.0382161270757 9.8324115369993 19.409722585549
154	237954 222 3205 3662 93 100 8 1.9222012590366 8.880686804981 38.285008282371 233.93973440596
155	238176 196 3207 3662 94 100 7 2379.0020808444 2414.8345383538 16798.765493885 40315087.965232
156	238372 197 3207 3662 94 100 7 1578.4661713783 1610.0754950577 11130.306506544 17698527.454734
157	238569 167 3353 3662 95 100 6 4.2052558286512 13.869080203711 53.68082171893 546.07449339205
158	238736 139 3355 3662 96 100 5 1.7976374135679 2.0160379633773 9.6638243750599 18.711295542988
159	238875 141 3355 3662 96 100 5 4.0201994287793 8.7639896884138 31.793081878643 216.30054474325
160	239016 113 3506 3662 97 100 4 2402.5073859703 2414.8810770222 9636.7749112048 23216946.009306
161	239129 113 3506 3662 97 100 4 1578.4490826223 1586.2678591823 6325.5599182397 10003213.08166
162	239242 84 3508 3662 98 100 3 3.9195603011693 7.789297424702 17.513605228284 109.73120089174
163	239326 57 3660 3662 99 100 2 1.8851872012438 1.9845499222889 3.8697371235327 7.4923691777902
164	239383 57 3660 3662 99 100 2 4.0453611473868 5.2548522348047 9.3002133821916 43.978418822419
165	239440 29 3662 3662 100 100 1 2414.8650521714 2414.8650521714 2414.8650521714 5831573.2201988
166	239469 29 3662 3662 100 100 1 1578.4549668636 1578.4549668636 1578.4549668636 2491520.0824164

