file 7701488 1693005359                                         
version 2
run Default-0-20230825-20:15:34-11793
attr configname Default
attr datetime 20230825-20:15:34
attr experiment Default
attr inifile omnetpp.ini
attr iterationvars ""
attr iterationvarsf ""
attr measurement ""
attr network RSUExampleScenario
attr processid 11793
attr repetition 0
attr replication #0
attr resultdir results
attr runnumber 0
attr seedset 0
param *.playgroundSizeX 2500m
param *.playgroundSizeY 2500m
param *.playgroundSizeZ 50m
param *.annotations.draw true
param *.obstacles.obstacles "xmldoc(\"config.xml\", \"//AnalogueModel[@type='SimpleObstacleShadowing']/obstacles\")"
param *.manager.updateInterval 1s
param *.manager.host "\"localhost\""
param *.manager.port 9999
param *.manager.autoShutdown true
param *.manager.launchConfig "xmldoc(\"erlangen.launchd.xml\")"
param *.rsu[0].mobility.x 2000
param *.rsu[0].mobility.y 2000
param *.rsu[0].mobility.z 3
param *.rsu[*].applType "\"TraCIDemoRSU11p\""
param *.rsu[*].appl.headerLength "80 bit"
param *.rsu[*].appl.sendBeacons false
param *.rsu[*].appl.dataOnSch false
param *.rsu[*].appl.beaconInterval 1s
param *.rsu[*].appl.beaconUserPriority 7
param *.rsu[*].appl.dataUserPriority 5
param *.rsu[*].nic.phy80211p.antennaOffsetZ "0 m"
param *.connectionManager.sendDirect true
param *.connectionManager.maxInterfDist 2600m
param *.connectionManager.drawMaxIntfDist false
param *.**.nic.mac1609_4.useServiceChannel false
param *.**.nic.mac1609_4.txPower 20mW
param *.**.nic.mac1609_4.bitrate 6Mbps
param *.**.nic.phy80211p.minPowerLevel -110dBm
param *.**.nic.phy80211p.useNoiseFloor true
param *.**.nic.phy80211p.noiseFloor -98dBm
param *.**.nic.phy80211p.decider "xmldoc(\"config.xml\")"
param *.**.nic.phy80211p.analogueModels "xmldoc(\"config.xml\")"
param *.**.nic.phy80211p.usePropagationDelay true
param *.**.nic.phy80211p.antenna "xmldoc(\"antenna.xml\", \"/root/Antenna[@id='monopole']\")"
param *.node[*].nic.phy80211p.antennaOffsetY "0 m"
param *.node[*].nic.phy80211p.antennaOffsetZ "1.895 m"
param *.node[*].applType "\"TraCIDemo11p\""
param *.node[*].appl.headerLength "80 bit"
param *.node[*].appl.sendBeacons false
param *.node[*].appl.dataOnSch false
param *.node[*].appl.beaconInterval 1s
param *.node[*].veinsmobility.x 0
param *.node[*].veinsmobility.y 0
param *.node[*].veinsmobility.z 0
param *.node[*].veinsmobility.setHostSpeed false

vector 0 RSUExampleScenario.node[0].veinsmobility posx ETV
vector 1 RSUExampleScenario.node[0].veinsmobility posy ETV
vector 2 RSUExampleScenario.node[0].veinsmobility speed ETV
vector 3 RSUExampleScenario.node[0].veinsmobility acceleration ETV
vector 4 RSUExampleScenario.node[0].veinsmobility co2emission ETV
vector 5 RSUExampleScenario.node[1].veinsmobility posx ETV
vector 6 RSUExampleScenario.node[1].veinsmobility posy ETV
vector 7 RSUExampleScenario.node[1].veinsmobility speed ETV
vector 8 RSUExampleScenario.node[1].veinsmobility acceleration ETV
vector 9 RSUExampleScenario.node[1].veinsmobility co2emission ETV
vector 10 RSUExampleScenario.node[2].veinsmobility posx ETV
vector 11 RSUExampleScenario.node[2].veinsmobility posy ETV
vector 12 RSUExampleScenario.node[2].veinsmobility speed ETV
vector 13 RSUExampleScenario.node[2].veinsmobility acceleration ETV
vector 14 RSUExampleScenario.node[2].veinsmobility co2emission ETV
vector 15 RSUExampleScenario.node[3].veinsmobility posx ETV
vector 16 RSUExampleScenario.node[3].veinsmobility posy ETV
vector 17 RSUExampleScenario.node[3].veinsmobility speed ETV
vector 18 RSUExampleScenario.node[3].veinsmobility acceleration ETV
vector 19 RSUExampleScenario.node[3].veinsmobility co2emission ETV
vector 20 RSUExampleScenario.node[4].veinsmobility posx ETV
vector 21 RSUExampleScenario.node[4].veinsmobility posy ETV
vector 22 RSUExampleScenario.node[4].veinsmobility speed ETV
vector 23 RSUExampleScenario.node[4].veinsmobility acceleration ETV
vector 24 RSUExampleScenario.node[4].veinsmobility co2emission ETV
vector 25 RSUExampleScenario.node[5].veinsmobility posx ETV
vector 26 RSUExampleScenario.node[5].veinsmobility posy ETV
vector 27 RSUExampleScenario.node[5].veinsmobility speed ETV
vector 28 RSUExampleScenario.node[5].veinsmobility acceleration ETV
vector 29 RSUExampleScenario.node[5].veinsmobility co2emission ETV
vector 30 RSUExampleScenario.node[6].veinsmobility posx ETV
vector 31 RSUExampleScenario.node[6].veinsmobility posy ETV
vector 32 RSUExampleScenario.node[6].veinsmobility speed ETV
vector 33 RSUExampleScenario.node[6].veinsmobility acceleration ETV
vector 34 RSUExampleScenario.node[6].veinsmobility co2emission ETV
vector 35 RSUExampleScenario.node[7].veinsmobility posx ETV
vector 36 RSUExampleScenario.node[7].veinsmobility posy ETV
vector 37 RSUExampleScenario.node[7].veinsmobility speed ETV
vector 38 RSUExampleScenario.node[7].veinsmobility acceleration ETV
vector 39 RSUExampleScenario.node[7].veinsmobility co2emission ETV
vector 40 RSUExampleScenario.node[8].veinsmobility posx ETV
vector 41 RSUExampleScenario.node[8].veinsmobility posy ETV
vector 42 RSUExampleScenario.node[8].veinsmobility speed ETV
vector 43 RSUExampleScenario.node[8].veinsmobility acceleration ETV
vector 44 RSUExampleScenario.node[8].veinsmobility co2emission ETV
vector 45 RSUExampleScenario.node[9].veinsmobility posx ETV
vector 46 RSUExampleScenario.node[9].veinsmobility posy ETV
vector 47 RSUExampleScenario.node[9].veinsmobility speed ETV
vector 48 RSUExampleScenario.node[9].veinsmobility acceleration ETV
vector 49 RSUExampleScenario.node[9].veinsmobility co2emission ETV
vector 50 RSUExampleScenario.node[10].veinsmobility posx ETV
vector 51 RSUExampleScenario.node[10].veinsmobility posy ETV
vector 52 RSUExampleScenario.node[10].veinsmobility speed ETV
vector 53 RSUExampleScenario.node[10].veinsmobility acceleration ETV
vector 54 RSUExampleScenario.node[10].veinsmobility co2emission ETV
vector 55 RSUExampleScenario.node[11].veinsmobility posx ETV
vector 56 RSUExampleScenario.node[11].veinsmobility posy ETV
vector 57 RSUExampleScenario.node[11].veinsmobility speed ETV
vector 58 RSUExampleScenario.node[11].veinsmobility acceleration ETV
vector 59 RSUExampleScenario.node[11].veinsmobility co2emission ETV
vector 60 RSUExampleScenario.node[12].veinsmobility posx ETV
vector 61 RSUExampleScenario.node[12].veinsmobility posy ETV
vector 62 RSUExampleScenario.node[12].veinsmobility speed ETV
vector 63 RSUExampleScenario.node[12].veinsmobility acceleration ETV
vector 64 RSUExampleScenario.node[12].veinsmobility co2emission ETV
vector 65 RSUExampleScenario.node[13].veinsmobility posx ETV
vector 66 RSUExampleScenario.node[13].veinsmobility posy ETV
vector 67 RSUExampleScenario.node[13].veinsmobility speed ETV
vector 68 RSUExampleScenario.node[13].veinsmobility acceleration ETV
vector 69 RSUExampleScenario.node[13].veinsmobility co2emission ETV
vector 70 RSUExampleScenario.node[14].veinsmobility posx ETV
vector 71 RSUExampleScenario.node[14].veinsmobility posy ETV
vector 72 RSUExampleScenario.node[14].veinsmobility speed ETV
vector 73 RSUExampleScenario.node[14].veinsmobility acceleration ETV
vector 74 RSUExampleScenario.node[14].veinsmobility co2emission ETV
vector 75 RSUExampleScenario.node[15].veinsmobility posx ETV
vector 76 RSUExampleScenario.node[15].veinsmobility posy ETV
vector 77 RSUExampleScenario.node[15].veinsmobility speed ETV
vector 78 RSUExampleScenario.node[15].veinsmobility acceleration ETV
vector 79 RSUExampleScenario.node[15].veinsmobility co2emission ETV
vector 80 RSUExampleScenario.node[16].veinsmobility posx ETV
vector 81 RSUExampleScenario.node[16].veinsmobility posy ETV
vector 82 RSUExampleScenario.node[16].veinsmobility speed ETV
vector 83 RSUExampleScenario.node[16].veinsmobility acceleration ETV
vector 84 RSUExampleScenario.node[16].veinsmobility co2emission ETV
vector 85 RSUExampleScenario.node[17].veinsmobility posx ETV
vector 86 RSUExampleScenario.node[17].veinsmobility posy ETV
vector 87 RSUExampleScenario.node[17].veinsmobility speed ETV
vector 88 RSUExampleScenario.node[17].veinsmobility acceleration ETV
vector 89 RSUExampleScenario.node[17].veinsmobility co2emission ETV
vector 90 RSUExampleScenario.node[18].veinsmobility posx ETV
vector 91 RSUExampleScenario.node[18].veinsmobility posy ETV
vector 92 RSUExampleScenario.node[18].veinsmobility speed ETV
vector 93 RSUExampleScenario.node[18].veinsmobility acceleration ETV
vector 94 RSUExampleScenario.node[18].veinsmobility co2emission ETV
vector 95 RSUExampleScenario.node[19].veinsmobility posx ETV
vector 96 RSUExampleScenario.node[19].veinsmobility posy ETV
vector 97 RSUExampleScenario.node[19].veinsmobility speed ETV
vector 98 RSUExampleScenario.node[19].veinsmobility acceleration ETV
vector 99 RSUExampleScenario.node[19].veinsmobility co2emission ETV
vector 100 RSUExampleScenario.node[20].veinsmobility posx ETV
vector 101 RSUExampleScenario.node[20].veinsmobility posy ETV
vector 102 RSUExampleScenario.node[20].veinsmobility speed ETV
vector 103 RSUExampleScenario.node[20].veinsmobility acceleration ETV
vector 104 RSUExampleScenario.node[20].veinsmobility co2emission ETV
vector 105 RSUExampleScenario.node[21].veinsmobility posx ETV
vector 106 RSUExampleScenario.node[21].veinsmobility posy ETV
vector 107 RSUExampleScenario.node[21].veinsmobility speed ETV
vector 108 RSUExampleScenario.node[21].veinsmobility acceleration ETV
vector 109 RSUExampleScenario.node[21].veinsmobility co2emission ETV
vector 110 RSUExampleScenario.node[22].veinsmobility posx ETV
vector 111 RSUExampleScenario.node[22].veinsmobility posy ETV
vector 112 RSUExampleScenario.node[22].veinsmobility speed ETV
vector 113 RSUExampleScenario.node[22].veinsmobility acceleration ETV
vector 114 RSUExampleScenario.node[22].veinsmobility co2emission ETV
vector 115 RSUExampleScenario.node[23].veinsmobility posx ETV
vector 116 RSUExampleScenario.node[23].veinsmobility posy ETV
vector 117 RSUExampleScenario.node[23].veinsmobility speed ETV
vector 118 RSUExampleScenario.node[23].veinsmobility acceleration ETV
vector 119 RSUExampleScenario.node[23].veinsmobility co2emission ETV
vector 120 RSUExampleScenario.node[24].veinsmobility posx ETV
vector 121 RSUExampleScenario.node[24].veinsmobility posy ETV
vector 122 RSUExampleScenario.node[24].veinsmobility speed ETV
vector 123 RSUExampleScenario.node[24].veinsmobility acceleration ETV
vector 124 RSUExampleScenario.node[24].veinsmobility co2emission ETV
vector 125 RSUExampleScenario.node[25].veinsmobility posx ETV
vector 126 RSUExampleScenario.node[25].veinsmobility posy ETV
vector 127 RSUExampleScenario.node[25].veinsmobility speed ETV
vector 128 RSUExampleScenario.node[25].veinsmobility acceleration ETV
vector 129 RSUExampleScenario.node[25].veinsmobility co2emission ETV
vector 130 RSUExampleScenario.node[26].veinsmobility posx ETV
vector 131 RSUExampleScenario.node[26].veinsmobility posy ETV
vector 132 RSUExampleScenario.node[26].veinsmobility speed ETV
vector 133 RSUExampleScenario.node[26].veinsmobility acceleration ETV
vector 134 RSUExampleScenario.node[26].veinsmobility co2emission ETV
vector 135 RSUExampleScenario.node[27].veinsmobility posx ETV
vector 136 RSUExampleScenario.node[27].veinsmobility posy ETV
vector 137 RSUExampleScenario.node[27].veinsmobility speed ETV
vector 138 RSUExampleScenario.node[27].veinsmobility acceleration ETV
vector 139 RSUExampleScenario.node[27].veinsmobility co2emission ETV
vector 140 RSUExampleScenario.node[28].veinsmobility posx ETV
vector 141 RSUExampleScenario.node[28].veinsmobility posy ETV
vector 142 RSUExampleScenario.node[28].veinsmobility speed ETV
vector 143 RSUExampleScenario.node[28].veinsmobility acceleration ETV
vector 144 RSUExampleScenario.node[28].veinsmobility co2emission ETV
vector 145 RSUExampleScenario.node[29].veinsmobility posx ETV
vector 146 RSUExampleScenario.node[29].veinsmobility posy ETV
vector 147 RSUExampleScenario.node[29].veinsmobility speed ETV
vector 148 RSUExampleScenario.node[29].veinsmobility acceleration ETV
vector 149 RSUExampleScenario.node[29].veinsmobility co2emission ETV
vector 150 RSUExampleScenario.node[30].veinsmobility posx ETV
vector 151 RSUExampleScenario.node[30].veinsmobility posy ETV
vector 152 RSUExampleScenario.node[30].veinsmobility speed ETV
vector 153 RSUExampleScenario.node[30].veinsmobility acceleration ETV
vector 154 RSUExampleScenario.node[30].veinsmobility co2emission ETV
vector 155 RSUExampleScenario.node[31].veinsmobility posx ETV
vector 156 RSUExampleScenario.node[31].veinsmobility posy ETV
vector 157 RSUExampleScenario.node[31].veinsmobility speed ETV
vector 158 RSUExampleScenario.node[31].veinsmobility acceleration ETV
vector 159 RSUExampleScenario.node[31].veinsmobility co2emission ETV
vector 160 RSUExampleScenario.node[32].veinsmobility posx ETV
vector 161 RSUExampleScenario.node[32].veinsmobility posy ETV
vector 162 RSUExampleScenario.node[32].veinsmobility speed ETV
vector 163 RSUExampleScenario.node[32].veinsmobility acceleration ETV
vector 164 RSUExampleScenario.node[32].veinsmobility co2emission ETV
vector 165 RSUExampleScenario.node[33].veinsmobility posx ETV
vector 166 RSUExampleScenario.node[33].veinsmobility posy ETV
vector 167 RSUExampleScenario.node[33].veinsmobility speed ETV
vector 168 RSUExampleScenario.node[33].veinsmobility acceleration ETV
vector 169 RSUExampleScenario.node[33].veinsmobility co2emission ETV
vector 170 RSUExampleScenario.node[34].veinsmobility posx ETV
vector 171 RSUExampleScenario.node[34].veinsmobility posy ETV
vector 172 RSUExampleScenario.node[34].veinsmobility speed ETV
vector 173 RSUExampleScenario.node[34].veinsmobility acceleration ETV
vector 174 RSUExampleScenario.node[34].veinsmobility co2emission ETV
vector 175 RSUExampleScenario.node[35].veinsmobility posx ETV
vector 176 RSUExampleScenario.node[35].veinsmobility posy ETV
vector 177 RSUExampleScenario.node[35].veinsmobility speed ETV
vector 178 RSUExampleScenario.node[35].veinsmobility acceleration ETV
vector 179 RSUExampleScenario.node[35].veinsmobility co2emission ETV
vector 180 RSUExampleScenario.node[36].veinsmobility posx ETV
vector 181 RSUExampleScenario.node[36].veinsmobility posy ETV
vector 182 RSUExampleScenario.node[36].veinsmobility speed ETV
vector 183 RSUExampleScenario.node[36].veinsmobility acceleration ETV
vector 184 RSUExampleScenario.node[36].veinsmobility co2emission ETV
vector 185 RSUExampleScenario.node[37].veinsmobility posx ETV
vector 186 RSUExampleScenario.node[37].veinsmobility posy ETV
vector 187 RSUExampleScenario.node[37].veinsmobility speed ETV
vector 188 RSUExampleScenario.node[37].veinsmobility acceleration ETV
vector 189 RSUExampleScenario.node[37].veinsmobility co2emission ETV
vector 190 RSUExampleScenario.node[38].veinsmobility posx ETV
vector 191 RSUExampleScenario.node[38].veinsmobility posy ETV
vector 192 RSUExampleScenario.node[38].veinsmobility speed ETV
vector 193 RSUExampleScenario.node[38].veinsmobility acceleration ETV
vector 194 RSUExampleScenario.node[38].veinsmobility co2emission ETV
vector 195 RSUExampleScenario.node[39].veinsmobility posx ETV
vector 196 RSUExampleScenario.node[39].veinsmobility posy ETV
vector 197 RSUExampleScenario.node[39].veinsmobility speed ETV
vector 198 RSUExampleScenario.node[39].veinsmobility acceleration ETV
vector 199 RSUExampleScenario.node[39].veinsmobility co2emission ETV
vector 200 RSUExampleScenario.node[40].veinsmobility posx ETV
vector 201 RSUExampleScenario.node[40].veinsmobility posy ETV
vector 202 RSUExampleScenario.node[40].veinsmobility speed ETV
vector 203 RSUExampleScenario.node[40].veinsmobility acceleration ETV
vector 204 RSUExampleScenario.node[40].veinsmobility co2emission ETV
vector 205 RSUExampleScenario.node[41].veinsmobility posx ETV
vector 206 RSUExampleScenario.node[41].veinsmobility posy ETV
vector 207 RSUExampleScenario.node[41].veinsmobility speed ETV
vector 208 RSUExampleScenario.node[41].veinsmobility acceleration ETV
vector 209 RSUExampleScenario.node[41].veinsmobility co2emission ETV
vector 210 RSUExampleScenario.node[42].veinsmobility posx ETV
vector 211 RSUExampleScenario.node[42].veinsmobility posy ETV
vector 212 RSUExampleScenario.node[42].veinsmobility speed ETV
vector 213 RSUExampleScenario.node[42].veinsmobility acceleration ETV
vector 214 RSUExampleScenario.node[42].veinsmobility co2emission ETV
vector 215 RSUExampleScenario.node[43].veinsmobility posx ETV
vector 216 RSUExampleScenario.node[43].veinsmobility posy ETV
vector 217 RSUExampleScenario.node[43].veinsmobility speed ETV
vector 218 RSUExampleScenario.node[43].veinsmobility acceleration ETV
vector 219 RSUExampleScenario.node[43].veinsmobility co2emission ETV
vector 220 RSUExampleScenario.node[44].veinsmobility posx ETV
vector 221 RSUExampleScenario.node[44].veinsmobility posy ETV
vector 222 RSUExampleScenario.node[44].veinsmobility speed ETV
vector 223 RSUExampleScenario.node[44].veinsmobility acceleration ETV
vector 224 RSUExampleScenario.node[44].veinsmobility co2emission ETV
vector 225 RSUExampleScenario.node[45].veinsmobility posx ETV
vector 226 RSUExampleScenario.node[45].veinsmobility posy ETV
vector 227 RSUExampleScenario.node[45].veinsmobility speed ETV
vector 228 RSUExampleScenario.node[45].veinsmobility acceleration ETV
vector 229 RSUExampleScenario.node[45].veinsmobility co2emission ETV
vector 230 RSUExampleScenario.node[46].veinsmobility posx ETV
vector 231 RSUExampleScenario.node[46].veinsmobility posy ETV
vector 232 RSUExampleScenario.node[46].veinsmobility speed ETV
vector 233 RSUExampleScenario.node[46].veinsmobility acceleration ETV
vector 234 RSUExampleScenario.node[46].veinsmobility co2emission ETV
vector 235 RSUExampleScenario.node[47].veinsmobility posx ETV
vector 236 RSUExampleScenario.node[47].veinsmobility posy ETV
vector 237 RSUExampleScenario.node[47].veinsmobility speed ETV
vector 238 RSUExampleScenario.node[47].veinsmobility acceleration ETV
vector 239 RSUExampleScenario.node[47].veinsmobility co2emission ETV
vector 240 RSUExampleScenario.node[48].veinsmobility posx ETV
vector 241 RSUExampleScenario.node[48].veinsmobility posy ETV
vector 242 RSUExampleScenario.node[48].veinsmobility speed ETV
vector 243 RSUExampleScenario.node[48].veinsmobility acceleration ETV
vector 244 RSUExampleScenario.node[48].veinsmobility co2emission ETV
vector 245 RSUExampleScenario.node[49].veinsmobility posx ETV
vector 246 RSUExampleScenario.node[49].veinsmobility posy ETV
vector 247 RSUExampleScenario.node[49].veinsmobility speed ETV
vector 248 RSUExampleScenario.node[49].veinsmobility acceleration ETV
vector 249 RSUExampleScenario.node[49].veinsmobility co2emission ETV
vector 250 RSUExampleScenario.node[50].veinsmobility posx ETV
vector 251 RSUExampleScenario.node[50].veinsmobility posy ETV
vector 252 RSUExampleScenario.node[50].veinsmobility speed ETV
vector 253 RSUExampleScenario.node[50].veinsmobility acceleration ETV
vector 254 RSUExampleScenario.node[50].veinsmobility co2emission ETV
vector 255 RSUExampleScenario.node[51].veinsmobility posx ETV
vector 256 RSUExampleScenario.node[51].veinsmobility posy ETV
vector 257 RSUExampleScenario.node[51].veinsmobility speed ETV
vector 258 RSUExampleScenario.node[51].veinsmobility acceleration ETV
vector 259 RSUExampleScenario.node[51].veinsmobility co2emission ETV
vector 260 RSUExampleScenario.node[52].veinsmobility posx ETV
vector 261 RSUExampleScenario.node[52].veinsmobility posy ETV
vector 262 RSUExampleScenario.node[52].veinsmobility speed ETV
vector 263 RSUExampleScenario.node[52].veinsmobility acceleration ETV
vector 264 RSUExampleScenario.node[52].veinsmobility co2emission ETV
vector 265 RSUExampleScenario.node[53].veinsmobility posx ETV
vector 266 RSUExampleScenario.node[53].veinsmobility posy ETV
vector 267 RSUExampleScenario.node[53].veinsmobility speed ETV
vector 268 RSUExampleScenario.node[53].veinsmobility acceleration ETV
vector 269 RSUExampleScenario.node[53].veinsmobility co2emission ETV
vector 270 RSUExampleScenario.node[54].veinsmobility posx ETV
vector 271 RSUExampleScenario.node[54].veinsmobility posy ETV
vector 272 RSUExampleScenario.node[54].veinsmobility speed ETV
vector 273 RSUExampleScenario.node[54].veinsmobility acceleration ETV
vector 274 RSUExampleScenario.node[54].veinsmobility co2emission ETV
vector 275 RSUExampleScenario.node[55].veinsmobility posx ETV
vector 276 RSUExampleScenario.node[55].veinsmobility posy ETV
vector 277 RSUExampleScenario.node[55].veinsmobility speed ETV
vector 278 RSUExampleScenario.node[55].veinsmobility acceleration ETV
vector 279 RSUExampleScenario.node[55].veinsmobility co2emission ETV
vector 280 RSUExampleScenario.node[56].veinsmobility posx ETV
vector 281 RSUExampleScenario.node[56].veinsmobility posy ETV
vector 282 RSUExampleScenario.node[56].veinsmobility speed ETV
vector 283 RSUExampleScenario.node[56].veinsmobility acceleration ETV
vector 284 RSUExampleScenario.node[56].veinsmobility co2emission ETV
vector 285 RSUExampleScenario.node[57].veinsmobility posx ETV
vector 286 RSUExampleScenario.node[57].veinsmobility posy ETV
vector 287 RSUExampleScenario.node[57].veinsmobility speed ETV
vector 288 RSUExampleScenario.node[57].veinsmobility acceleration ETV
vector 289 RSUExampleScenario.node[57].veinsmobility co2emission ETV
vector 290 RSUExampleScenario.node[58].veinsmobility posx ETV
vector 291 RSUExampleScenario.node[58].veinsmobility posy ETV
vector 292 RSUExampleScenario.node[58].veinsmobility speed ETV
vector 293 RSUExampleScenario.node[58].veinsmobility acceleration ETV
vector 294 RSUExampleScenario.node[58].veinsmobility co2emission ETV
vector 295 RSUExampleScenario.node[59].veinsmobility posx ETV
vector 296 RSUExampleScenario.node[59].veinsmobility posy ETV
vector 297 RSUExampleScenario.node[59].veinsmobility speed ETV
vector 298 RSUExampleScenario.node[59].veinsmobility acceleration ETV
vector 299 RSUExampleScenario.node[59].veinsmobility co2emission ETV
vector 300 RSUExampleScenario.node[60].veinsmobility posx ETV
vector 301 RSUExampleScenario.node[60].veinsmobility posy ETV
vector 302 RSUExampleScenario.node[60].veinsmobility speed ETV
vector 303 RSUExampleScenario.node[60].veinsmobility acceleration ETV
vector 304 RSUExampleScenario.node[60].veinsmobility co2emission ETV
vector 305 RSUExampleScenario.node[61].veinsmobility posx ETV
vector 306 RSUExampleScenario.node[61].veinsmobility posy ETV
vector 307 RSUExampleScenario.node[61].veinsmobility speed ETV
vector 308 RSUExampleScenario.node[61].veinsmobility acceleration ETV
vector 309 RSUExampleScenario.node[61].veinsmobility co2emission ETV
vector 310 RSUExampleScenario.node[62].veinsmobility posx ETV
vector 311 RSUExampleScenario.node[62].veinsmobility posy ETV
vector 312 RSUExampleScenario.node[62].veinsmobility speed ETV
vector 313 RSUExampleScenario.node[62].veinsmobility acceleration ETV
vector 314 RSUExampleScenario.node[62].veinsmobility co2emission ETV
vector 315 RSUExampleScenario.node[63].veinsmobility posx ETV
vector 316 RSUExampleScenario.node[63].veinsmobility posy ETV
vector 317 RSUExampleScenario.node[63].veinsmobility speed ETV
vector 318 RSUExampleScenario.node[63].veinsmobility acceleration ETV
vector 319 RSUExampleScenario.node[63].veinsmobility co2emission ETV
vector 320 RSUExampleScenario.node[64].veinsmobility posx ETV
vector 321 RSUExampleScenario.node[64].veinsmobility posy ETV
vector 322 RSUExampleScenario.node[64].veinsmobility speed ETV
vector 323 RSUExampleScenario.node[64].veinsmobility acceleration ETV
vector 324 RSUExampleScenario.node[64].veinsmobility co2emission ETV
vector 325 RSUExampleScenario.node[65].veinsmobility posx ETV
vector 326 RSUExampleScenario.node[65].veinsmobility posy ETV
vector 327 RSUExampleScenario.node[65].veinsmobility speed ETV
vector 328 RSUExampleScenario.node[65].veinsmobility acceleration ETV
vector 329 RSUExampleScenario.node[65].veinsmobility co2emission ETV
vector 330 RSUExampleScenario.node[66].veinsmobility posx ETV
vector 331 RSUExampleScenario.node[66].veinsmobility posy ETV
vector 332 RSUExampleScenario.node[66].veinsmobility speed ETV
vector 333 RSUExampleScenario.node[66].veinsmobility acceleration ETV
vector 334 RSUExampleScenario.node[66].veinsmobility co2emission ETV
vector 335 RSUExampleScenario.node[67].veinsmobility posx ETV
vector 336 RSUExampleScenario.node[67].veinsmobility posy ETV
vector 337 RSUExampleScenario.node[67].veinsmobility speed ETV
vector 338 RSUExampleScenario.node[67].veinsmobility acceleration ETV
vector 339 RSUExampleScenario.node[67].veinsmobility co2emission ETV
vector 340 RSUExampleScenario.node[68].veinsmobility posx ETV
vector 341 RSUExampleScenario.node[68].veinsmobility posy ETV
vector 342 RSUExampleScenario.node[68].veinsmobility speed ETV
vector 343 RSUExampleScenario.node[68].veinsmobility acceleration ETV
vector 344 RSUExampleScenario.node[68].veinsmobility co2emission ETV
vector 345 RSUExampleScenario.node[69].veinsmobility posx ETV
vector 346 RSUExampleScenario.node[69].veinsmobility posy ETV
vector 347 RSUExampleScenario.node[69].veinsmobility speed ETV
vector 348 RSUExampleScenario.node[69].veinsmobility acceleration ETV
vector 349 RSUExampleScenario.node[69].veinsmobility co2emission ETV
vector 350 RSUExampleScenario.node[70].veinsmobility posx ETV
vector 351 RSUExampleScenario.node[70].veinsmobility posy ETV
vector 352 RSUExampleScenario.node[70].veinsmobility speed ETV
vector 353 RSUExampleScenario.node[70].veinsmobility acceleration ETV
vector 354 RSUExampleScenario.node[70].veinsmobility co2emission ETV
vector 355 RSUExampleScenario.node[71].veinsmobility posx ETV
vector 356 RSUExampleScenario.node[71].veinsmobility posy ETV
vector 357 RSUExampleScenario.node[71].veinsmobility speed ETV
vector 358 RSUExampleScenario.node[71].veinsmobility acceleration ETV
vector 359 RSUExampleScenario.node[71].veinsmobility co2emission ETV
vector 360 RSUExampleScenario.node[72].veinsmobility posx ETV
vector 361 RSUExampleScenario.node[72].veinsmobility posy ETV
vector 362 RSUExampleScenario.node[72].veinsmobility speed ETV
vector 363 RSUExampleScenario.node[72].veinsmobility acceleration ETV
vector 364 RSUExampleScenario.node[72].veinsmobility co2emission ETV
vector 365 RSUExampleScenario.node[73].veinsmobility posx ETV
vector 366 RSUExampleScenario.node[73].veinsmobility posy ETV
vector 367 RSUExampleScenario.node[73].veinsmobility speed ETV
vector 368 RSUExampleScenario.node[73].veinsmobility acceleration ETV
vector 369 RSUExampleScenario.node[73].veinsmobility co2emission ETV
vector 370 RSUExampleScenario.node[74].veinsmobility posx ETV
vector 371 RSUExampleScenario.node[74].veinsmobility posy ETV
vector 372 RSUExampleScenario.node[74].veinsmobility speed ETV
vector 373 RSUExampleScenario.node[74].veinsmobility acceleration ETV
vector 374 RSUExampleScenario.node[74].veinsmobility co2emission ETV
vector 375 RSUExampleScenario.node[75].veinsmobility posx ETV
vector 376 RSUExampleScenario.node[75].veinsmobility posy ETV
vector 377 RSUExampleScenario.node[75].veinsmobility speed ETV
vector 378 RSUExampleScenario.node[75].veinsmobility acceleration ETV
vector 379 RSUExampleScenario.node[75].veinsmobility co2emission ETV
vector 380 RSUExampleScenario.node[76].veinsmobility posx ETV
vector 381 RSUExampleScenario.node[76].veinsmobility posy ETV
vector 382 RSUExampleScenario.node[76].veinsmobility speed ETV
vector 383 RSUExampleScenario.node[76].veinsmobility acceleration ETV
vector 384 RSUExampleScenario.node[76].veinsmobility co2emission ETV
vector 385 RSUExampleScenario.node[77].veinsmobility posx ETV
vector 386 RSUExampleScenario.node[77].veinsmobility posy ETV
vector 387 RSUExampleScenario.node[77].veinsmobility speed ETV
vector 388 RSUExampleScenario.node[77].veinsmobility acceleration ETV
vector 389 RSUExampleScenario.node[77].veinsmobility co2emission ETV
vector 390 RSUExampleScenario.node[78].veinsmobility posx ETV
vector 391 RSUExampleScenario.node[78].veinsmobility posy ETV
vector 392 RSUExampleScenario.node[78].veinsmobility speed ETV
vector 393 RSUExampleScenario.node[78].veinsmobility acceleration ETV
vector 394 RSUExampleScenario.node[78].veinsmobility co2emission ETV
vector 395 RSUExampleScenario.node[79].veinsmobility posx ETV
vector 396 RSUExampleScenario.node[79].veinsmobility posy ETV
vector 397 RSUExampleScenario.node[79].veinsmobility speed ETV
vector 398 RSUExampleScenario.node[79].veinsmobility acceleration ETV
vector 399 RSUExampleScenario.node[79].veinsmobility co2emission ETV
vector 400 RSUExampleScenario.node[80].veinsmobility posx ETV
vector 401 RSUExampleScenario.node[80].veinsmobility posy ETV
vector 402 RSUExampleScenario.node[80].veinsmobility speed ETV
vector 403 RSUExampleScenario.node[80].veinsmobility acceleration ETV
vector 404 RSUExampleScenario.node[80].veinsmobility co2emission ETV
vector 405 RSUExampleScenario.node[81].veinsmobility posx ETV
vector 406 RSUExampleScenario.node[81].veinsmobility posy ETV
vector 407 RSUExampleScenario.node[81].veinsmobility speed ETV
vector 408 RSUExampleScenario.node[81].veinsmobility acceleration ETV
vector 409 RSUExampleScenario.node[81].veinsmobility co2emission ETV
vector 410 RSUExampleScenario.node[82].veinsmobility posx ETV
vector 411 RSUExampleScenario.node[82].veinsmobility posy ETV
vector 412 RSUExampleScenario.node[82].veinsmobility speed ETV
vector 413 RSUExampleScenario.node[82].veinsmobility acceleration ETV
vector 414 RSUExampleScenario.node[82].veinsmobility co2emission ETV
vector 415 RSUExampleScenario.node[83].veinsmobility posx ETV
vector 416 RSUExampleScenario.node[83].veinsmobility posy ETV
vector 417 RSUExampleScenario.node[83].veinsmobility speed ETV
vector 418 RSUExampleScenario.node[83].veinsmobility acceleration ETV
vector 419 RSUExampleScenario.node[83].veinsmobility co2emission ETV
4	29561 6215 4 3347 3 252 250 0.973 8.9023657158011 569.2819316364 1626.8347419749
3	35776 6848 4 3347 3 252 250 -4.5 2.228807697075 6.5433337450279 136.63462731931
2	42624 6289 3 3347 2 252 251 4.1061966058897 13.999815066161 3405.8582408977 46718.910596232
1	48913 6310 2 3347 1 252 252 1218.7807038762 2120.9360540062 406934.05814322 677656345.64966
0	55223 6304 2 3347 1 252 252 202.10292518465 2450.6248001783 381763.56720962 719783217.59714
vector 420 RSUExampleScenario.node[84].veinsmobility posx ETV
vector 421 RSUExampleScenario.node[84].veinsmobility posy ETV
vector 422 RSUExampleScenario.node[84].veinsmobility speed ETV
vector 423 RSUExampleScenario.node[84].veinsmobility acceleration ETV
vector 424 RSUExampleScenario.node[84].veinsmobility co2emission ETV
9	61853 6222 7 17883 6 255 250 0.973 8.7525284671264 559.88617340763 1553.126542172
8	68075 6905 7 17883 6 255 250 -4.4892687861132 2.0988350649318 5.7087015687908 114.49035835968
7	74980 6316 6 17883 5 255 251 4.0332649588119 13.99953793895 3404.7619027169 46686.582173037
6	81296 6331 5 17883 4 255 252 1216.8750031739 2120.5707901428 407033.17105769 677988658.34433
5	87627 6329 5 17883 4 255 252 203.52392899175 2450.4780716181 382266.96598831 721039942.29836
vector 425 RSUExampleScenario.node[85].veinsmobility posx ETV
vector 426 RSUExampleScenario.node[85].veinsmobility posy ETV
vector 427 RSUExampleScenario.node[85].veinsmobility speed ETV
vector 428 RSUExampleScenario.node[85].veinsmobility acceleration ETV
vector 429 RSUExampleScenario.node[85].veinsmobility co2emission ETV
14	94282 6464 10 36024 9 258 250 0.973 8.2469806235914 560.47776315999 1554.8687674892
13	100746 7145 10 36024 9 258 250 -4.4962264973393 2.0878022219194 6.1025393860483 113.80261918742
12	107891 6586 9 36024 8 258 251 3.930963162637 13.999956833255 3405.2326815346 46679.238255561
11	114477 6591 8 36024 7 258 252 1218.5822406132 2120.9589145361 406992.06904301 677860631.33092
10	121068 6587 8 36024 7 258 252 203.247527648 2450.659299592 381850.62878583 719969543.46886
vector 430 RSUExampleScenario.node[86].veinsmobility posx ETV
vector 431 RSUExampleScenario.node[86].veinsmobility posy ETV
vector 432 RSUExampleScenario.node[86].veinsmobility speed ETV
vector 433 RSUExampleScenario.node[86].veinsmobility acceleration ETV
vector 434 RSUExampleScenario.node[86].veinsmobility co2emission ETV
19	127981 6468 13 46311 12 261 250 0.973 8.3694083781091 563.70815367544 1589.8042425588
18	134449 7165 13 46311 12 261 250 -4.5 2.1600366940722 6.0121535375907 122.30731418226
17	141614 6598 12 46311 11 261 251 4.0076977833542 13.999869057706 3405.2788026499 46689.655333348
16	148212 6621 11 46311 10 261 252 1218.7958462462 2120.90069908 407036.27603029 678026249.12807
15	154833 6615 11 46311 10 261 252 203.21077981393 2450.5176811377 381774.40401617 719717228.21421
vector 435 RSUExampleScenario.node[87].veinsmobility posx ETV
vector 436 RSUExampleScenario.node[87].veinsmobility posy ETV
vector 437 RSUExampleScenario.node[87].veinsmobility speed ETV
vector 438 RSUExampleScenario.node[87].veinsmobility acceleration ETV
vector 439 RSUExampleScenario.node[87].veinsmobility co2emission ETV
vector 440 RSUExampleScenario.node[88].veinsmobility posx ETV
vector 441 RSUExampleScenario.node[88].veinsmobility posy ETV
vector 442 RSUExampleScenario.node[88].veinsmobility speed ETV
vector 443 RSUExampleScenario.node[88].veinsmobility acceleration ETV
vector 444 RSUExampleScenario.node[88].veinsmobility co2emission ETV
vector 445 RSUExampleScenario.node[89].veinsmobility posx ETV
vector 446 RSUExampleScenario.node[89].veinsmobility posy ETV
vector 447 RSUExampleScenario.node[89].veinsmobility speed ETV
vector 448 RSUExampleScenario.node[89].veinsmobility acceleration ETV
vector 449 RSUExampleScenario.node[89].veinsmobility co2emission ETV
24	162426 6673 16 48698 15 270 256 0.973 8.3105242583869 562.99043882825 1520.0020969004
23	169099 7384 16 48698 15 270 256 -4.4257220337858 2.2053875824949 6.36463272411 109.77859481138
22	176483 6788 15 48698 14 270 257 4.1202440707026 13.999806407762 3406.2271032177 45683.746179942
21	183271 6805 14 48698 13 270 258 1216.6574496767 2120.7883864809 415775.49700097 690811989.29701
20	190076 6805 14 48698 13 270 258 203.16924504517 2450.2645866362 387273.93603241 729491488.69975
vector 450 RSUExampleScenario.node[90].veinsmobility posx ETV
vector 451 RSUExampleScenario.node[90].veinsmobility posy ETV
vector 452 RSUExampleScenario.node[90].veinsmobility speed ETV
29	197068 6614 19 48945 18 272 255 0.973 8.8530434321966 564.84977961516 1591.6641691909
28	203682 7348 19 48945 18 272 255 -4.1476450008758 2.2240570376068 6.1921167417044 110.33378296516
27	211030 6751 18 48945 17 272 256 4.11254450365 13.998108282317 3406.0104360289 45914.99649773
26	217781 6782 17 48945 16 272 257 1218.6058220081 2120.7722106203 414576.92946561 689548840.92446
25	224563 6784 17 48945 16 272 257 202.95276785118 2450.2291497608 385500.80129173 725720918.82955
vector 453 RSUExampleScenario.node[90].veinsmobility acceleration ETV
vector 454 RSUExampleScenario.node[90].veinsmobility co2emission ETV
vector 455 RSUExampleScenario.node[91].veinsmobility posx ETV
vector 456 RSUExampleScenario.node[91].veinsmobility posy ETV
34	231610 6601 22 49680 21 274 254 0.973 7.9969762628647 567.14236002465 1598.9900723246
33	238211 7310 22 49680 21 274 254 -4.5 2.4641409256682 6.807116215033 119.84952751641
32	245521 6738 21 49680 20 274 255 4.067372106413 13.999156328384 3405.7254444822 46060.297727149
31	252259 6771 20 49680 19 274 256 1218.0705713704 2120.8566767089 412871.03749035 686568153.01329
30	259030 6777 20 49680 19 274 256 201.87075694965 2450.4280289282 384836.45844619 724921780.69527
vector 457 RSUExampleScenario.node[91].veinsmobility speed ETV
vector 458 RSUExampleScenario.node[91].veinsmobility acceleration ETV
vector 459 RSUExampleScenario.node[91].veinsmobility co2emission ETV
vector 460 RSUExampleScenario.node[92].veinsmobility posx ETV
vector 461 RSUExampleScenario.node[92].veinsmobility posy ETV
vector 462 RSUExampleScenario.node[92].veinsmobility speed ETV
vector 463 RSUExampleScenario.node[92].veinsmobility acceleration ETV
vector 464 RSUExampleScenario.node[92].veinsmobility co2emission ETV
vector 465 RSUExampleScenario.node[93].veinsmobility posx ETV
vector 466 RSUExampleScenario.node[93].veinsmobility posy ETV
vector 467 RSUExampleScenario.node[93].veinsmobility speed ETV
44	266522 6618 28 51411 27 281 255 0.973 8.3114076733424 557.69248641277 1529.7828488556
43	273140 7367 28 51411 27 281 255 -4.5 2.2392650089366 5.1351733116847 97.979071679242
42	280507 6785 27 51411 26 281 256 4.0643546214392 13.998192990993 3401.3329080194 45818.963499618
41	287292 6826 26 51411 25 281 257 1216.1146431994 2120.8279265687 416384.20749784 695454118.53372
40	294118 6819 26 51411 25 281 257 203.85795295681 2450.3239084678 394450.78838204 750118180.3972
vector 468 RSUExampleScenario.node[93].veinsmobility acceleration ETV
vector 469 RSUExampleScenario.node[93].veinsmobility co2emission ETV
vector 470 RSUExampleScenario.node[94].veinsmobility posx ETV
vector 471 RSUExampleScenario.node[94].veinsmobility posy ETV
49	301200 6588 31 52148 30 283 254 0.973 8.3259780451779 559.71143308008 1571.492048144
48	307788 7347 31 52148 30 283 254 -2.5256712424416 2.1636936872965 5.5260433407794 89.887211707958
47	315135 6779 30 52148 29 283 255 3.8828872453123 13.999686614256 3401.0625360636 45990.476202082
46	321914 6805 29 52148 28 283 256 1216.5049902741 2120.7919995487 414793.84259758 693019794.33811
45	328719 6807 29 52148 28 283 256 204.5815746712 2450.5540833102 391773.56069867 743407953.52694
vector 472 RSUExampleScenario.node[94].veinsmobility speed ETV
vector 473 RSUExampleScenario.node[94].veinsmobility acceleration ETV
vector 474 RSUExampleScenario.node[94].veinsmobility co2emission ETV
vector 475 RSUExampleScenario.node[95].veinsmobility posx ETV
vector 476 RSUExampleScenario.node[95].veinsmobility posy ETV
vector 477 RSUExampleScenario.node[95].veinsmobility speed ETV
vector 478 RSUExampleScenario.node[95].veinsmobility acceleration ETV
vector 479 RSUExampleScenario.node[95].veinsmobility co2emission ETV
vector 480 RSUExampleScenario.node[96].veinsmobility posx ETV
vector 481 RSUExampleScenario.node[96].veinsmobility posy ETV
vector 482 RSUExampleScenario.node[96].veinsmobility speed ETV
vector 483 RSUExampleScenario.node[96].veinsmobility acceleration ETV
vector 484 RSUExampleScenario.node[96].veinsmobility co2emission ETV
vector 485 RSUExampleScenario.node[97].veinsmobility posx ETV
vector 486 RSUExampleScenario.node[97].veinsmobility posy ETV
vector 487 RSUExampleScenario.node[97].veinsmobility speed ETV
vector 488 RSUExampleScenario.node[97].veinsmobility acceleration ETV
vector 489 RSUExampleScenario.node[97].veinsmobility co2emission ETV
vector 490 RSUExampleScenario.node[98].veinsmobility posx ETV
vector 491 RSUExampleScenario.node[98].veinsmobility posy ETV
vector 492 RSUExampleScenario.node[98].veinsmobility speed ETV
vector 493 RSUExampleScenario.node[98].veinsmobility acceleration ETV
vector 494 RSUExampleScenario.node[98].veinsmobility co2emission ETV
39	337032 7224 25 56364 24 297 274 0.973 7.9715287769973 570.45509986804 1438.0909801069
38	344256 7979 25 56364 24 297 274 -4.4823587748475 2.2555459074327 6.0600316515431 97.596422828056
37	352235 7340 24 56364 23 297 275 4.0608742667126 13.999243474267 3403.9178948885 42844.69806367
36	359575 7363 23 56364 22 297 276 1216.6592579754 2120.6614999305 442358.49689993 730966175.48036
35	366938 7347 23 56364 22 297 276 203.18755553616 2450.4365012295 408006.07153253 765474074.31965
vector 495 RSUExampleScenario.node[99].veinsmobility posx ETV
vector 496 RSUExampleScenario.node[99].veinsmobility posy ETV
vector 497 RSUExampleScenario.node[99].veinsmobility speed ETV
54	374472 6985 34 57117 33 299 267 0.973 8.8976355453378 579.58996934347 1611.4448820542
53	381457 7740 34 57117 33 299 267 -3.2759362610207 2.2461710704397 5.8544045299451 102.09608196707
52	389197 7159 33 57117 32 299 268 4.1947202222332 13.999328219597 3405.4381522982 44162.089377601
51	396356 7198 32 57117 31 299 269 1216.8846438983 2120.7039867258 432238.47714555 716467745.82213
50	403554 7185 32 57117 31 299 269 203.01304437406 2450.3828549772 394803.94391547 738860547.75827
vector 498 RSUExampleScenario.node[99].veinsmobility acceleration ETV
vector 499 RSUExampleScenario.node[99].veinsmobility co2emission ETV
vector 500 RSUExampleScenario.node[100].veinsmobility posx ETV
vector 501 RSUExampleScenario.node[100].veinsmobility posy ETV
59	411004 6954 37 57367 36 301 266 0.973 8.73746890554 568.21432309229 1565.9699511096
58	417958 7749 37 57367 36 301 266 -3.7792833418176 2.3961217227788 7.1192930722842 91.902075427735
57	425707 7142 36 57367 35 301 267 3.8489417596173 13.999905188144 3407.5399443661 44362.239223112
56	432849 7173 35 57367 34 301 268 1216.9278476117 2120.7777846977 430132.66615662 712092291.22885
55	440022 7168 35 57367 34 301 268 200.99437365576 2450.2307157078 391936.81255118 732194327.96912
vector 502 RSUExampleScenario.node[100].veinsmobility speed ETV
64	447254 6911 40 57368 39 302 264 0.973 8.7089421533914 557.99361174442 1499.6821353757
63	454165 7679 40 57368 39 302 264 -4.5 2.171357678452 4.9692868631835 86.028584241899
62	461844 7098 39 57368 38 302 265 3.9219617499206 13.999539690407 3399.9012076374 44486.795153788
61	468942 7125 38 57368 37 302 266 1216.516403269 2120.9520459101 426791.47053798 706175686.11898
60	476067 7125 38 57368 37 302 266 204.62719099142 2450.6306422632 389902.87970237 729080981.53964
vector 503 RSUExampleScenario.node[100].veinsmobility acceleration ETV
vector 504 RSUExampleScenario.node[100].veinsmobility co2emission ETV
vector 505 RSUExampleScenario.node[101].veinsmobility posx ETV
vector 506 RSUExampleScenario.node[101].veinsmobility posy ETV
69	483459 6873 43 58108 42 304 263 0.973 8.5606523284014 561.53825937003 1528.0902338716
68	490332 7664 43 58108 42 304 263 -3.7634138144476 2.2943333165627 6.1008823034175 85.446269682099
67	497996 7082 42 58108 41 304 264 4.0161385181755 13.999926172604 3403.0368284986 44754.904809339
66	505078 7105 41 58108 40 304 265 1217.2568888152 2120.7260294929 425380.24612182 704120148.1626
65	512183 7107 41 58108 40 304 265 203.74163125025 2450.1499671022 388151.27995802 725734267.37487
vector 507 RSUExampleScenario.node[101].veinsmobility speed ETV
vector 508 RSUExampleScenario.node[101].veinsmobility acceleration ETV
vector 509 RSUExampleScenario.node[101].veinsmobility co2emission ETV
74	519495 6865 46 58858 45 306 262 0.973 8.7718288962126 560.93726165865 1544.3576814349
73	526360 7662 46 58858 45 306 262 -3.8456400924426 2.1980071439291 5.8294542688522 89.897114719951
72	534022 7064 45 58858 44 306 263 3.9992962979057 13.999656618503 3404.8921027341 44976.082404319
71	541086 7090 44 58858 43 306 264 1216.4648988303 2120.9558397355 424003.90801002 702146320.02502
70	548176 7090 44 58858 43 306 264 203.27425354393 2450.6330954138 386542.70949499 722585392.91764
vector 510 RSUExampleScenario.node[102].veinsmobility posx ETV
vector 511 RSUExampleScenario.node[102].veinsmobility posy ETV
vector 512 RSUExampleScenario.node[102].veinsmobility speed ETV
79	555456 6838 49 59106 48 308 261 0.973 8.4312780203507 563.1846923845 1567.1906209633
78	562294 7650 49 59106 48 308 261 -4.4635536425416 2.3831110880198 6.5891584514766 100.67796421096
77	569944 7055 48 59106 47 308 262 4.1510441398274 13.999630704054 3409.5045791816 45261.495128957
76	576999 7076 47 59106 46 308 263 1216.9610108202 2120.934805207 422818.39710687 700739986.44761
75	584075 7079 47 59106 46 308 263 200.97102680558 2450.6169209509 385920.96740904 722180643.22769
vector 513 RSUExampleScenario.node[102].veinsmobility acceleration ETV
vector 514 RSUExampleScenario.node[102].veinsmobility co2emission ETV
84	591295 6775 52 59830 51 309 259 0.973 8.7472268623497 557.57236141199 1517.3097368581
83	598070 7566 52 59830 51 309 259 -4.5 2.078282451923 5.5656829609782 95.653812585303
82	605636 7014 51 59830 50 309 260 3.8447853377257 13.999218537293 3402.7262712207 45407.141880791
81	612650 7029 50 59830 49 309 261 1216.8571517244 2120.6608228572 420105.12186671 697008767.13407
80	619679 7036 50 59830 49 309 261 204.31253439479 2450.5254289502 385238.29496216 722050065.84967
vector 515 RSUExampleScenario.node[103].veinsmobility posx ETV
vector 516 RSUExampleScenario.node[103].veinsmobility posy ETV
vector 517 RSUExampleScenario.node[103].veinsmobility speed ETV
vector 518 RSUExampleScenario.node[103].veinsmobility acceleration ETV
vector 519 RSUExampleScenario.node[103].veinsmobility co2emission ETV
vector 520 RSUExampleScenario.node[104].veinsmobility posx ETV
vector 521 RSUExampleScenario.node[104].veinsmobility posy ETV
vector 522 RSUExampleScenario.node[104].veinsmobility speed ETV
94	627236 6857 58 60815 57 314 258 0.973 8.696925829343 561.53130686382 1524.0179108353
93	634093 7589 58 60815 57 314 258 -4.4994725577654 2.3297191780875 6.3896411684877 94.908089875161
92	641682 7006 57 60815 56 314 259 4.0700236807532 13.999699370395 3403.1242756584 45414.739329039
91	648688 7023 56 60815 55 314 260 1216.9953217022 2120.7316811346 421719.36682041 705054741.81314
90	655711 7026 56 60815 55 314 260 203.15394713124 2450.4524190207 401330.47276276 766591962.6071
vector 523 RSUExampleScenario.node[104].veinsmobility acceleration ETV
vector 524 RSUExampleScenario.node[104].veinsmobility co2emission ETV
vector 525 RSUExampleScenario.node[105].veinsmobility posx ETV
vector 526 RSUExampleScenario.node[105].veinsmobility posy ETV
vector 527 RSUExampleScenario.node[105].veinsmobility speed ETV
vector 528 RSUExampleScenario.node[105].veinsmobility acceleration ETV
vector 529 RSUExampleScenario.node[105].veinsmobility co2emission ETV
99	663209 6813 61 62317 60 318 259 0.973 8.3204552480567 558.8717261656 1528.0151272423
98	670022 7628 61 62317 60 318 259 -4.2781268437111 2.222100084126 5.9253671393538 86.832902930654
97	677650 7039 60 62317 59 318 260 3.8447639940612 13.999608246239 3402.0293444306 45164.923926522
96	684689 7076 59 62317 58 318 261 1217.5209469162 2120.8961891662 422965.39213036 706665045.28177
95	691765 7064 59 62317 58 318 261 204.01933704619 2450.4624753713 399432.44251559 760192961.77602
vector 530 RSUExampleScenario.node[106].veinsmobility posx ETV
vector 531 RSUExampleScenario.node[106].veinsmobility posy ETV
vector 532 RSUExampleScenario.node[106].veinsmobility speed ETV
104	699019 7074 64 62568 63 320 258 0.973 8.1667304192483 561.29501494339 1564.4371999722
103	706093 7867 64 62568 63 320 258 -2.8142830486571 2.3276957343216 5.3889490557853 86.92987681791
102	713960 7285 63 62568 62 320 259 4.018615917157 13.999763481072 3402.8022181707 45379.995112466
101	721245 7308 62 62568 61 320 260 1218.1844614092 2120.5997553328 421384.45524613 704205979.97059
100	728553 7310 62 62568 61 320 260 204.06300706824 2450.3554975685 396370.2893067 752722658.27308
vector 533 RSUExampleScenario.node[106].veinsmobility acceleration ETV
vector 534 RSUExampleScenario.node[106].veinsmobility co2emission ETV
vector 535 RSUExampleScenario.node[107].veinsmobility posx ETV
vector 536 RSUExampleScenario.node[107].veinsmobility posy ETV
vector 537 RSUExampleScenario.node[107].veinsmobility speed ETV
vector 538 RSUExampleScenario.node[107].veinsmobility acceleration ETV
vector 539 RSUExampleScenario.node[107].veinsmobility co2emission ETV
109	736335 7126 67 64045 66 324 259 0.973 8.0062312204286 562.05018240333 1510.936791919
108	743461 7889 67 64045 66 324 259 -4.4309531287802 2.279591250075 6.0043684594025 93.225370257334
107	751350 7324 66 64045 65 324 260 4.2842987557744 13.999963147973 3404.9344550034 45198.886226872
106	758674 7347 65 64045 64 324 261 1217.1092126155 2120.7689092075 422141.47945716 704178917.98904
105	766021 7354 65 64045 64 324 261 203.16991082754 2450.1610031507 394217.00892479 745330777.99965
vector 540 RSUExampleScenario.node[108].veinsmobility posx ETV
vector 541 RSUExampleScenario.node[108].veinsmobility posy ETV
vector 542 RSUExampleScenario.node[108].veinsmobility speed ETV
vector 543 RSUExampleScenario.node[108].veinsmobility acceleration ETV
vector 544 RSUExampleScenario.node[108].veinsmobility co2emission ETV
vector 545 RSUExampleScenario.node[109].veinsmobility posx ETV
vector 546 RSUExampleScenario.node[109].veinsmobility posy ETV
vector 547 RSUExampleScenario.node[109].veinsmobility speed ETV
vector 548 RSUExampleScenario.node[109].veinsmobility acceleration ETV
vector 549 RSUExampleScenario.node[109].veinsmobility co2emission ETV
vector 550 RSUExampleScenario.node[110].veinsmobility posx ETV
vector 551 RSUExampleScenario.node[110].veinsmobility posy ETV
vector 552 RSUExampleScenario.node[110].veinsmobility speed ETV
vector 553 RSUExampleScenario.node[110].veinsmobility acceleration ETV
vector 554 RSUExampleScenario.node[110].veinsmobility co2emission ETV
vector 555 RSUExampleScenario.node[111].veinsmobility posx ETV
vector 556 RSUExampleScenario.node[111].veinsmobility posy ETV
vector 557 RSUExampleScenario.node[111].veinsmobility speed ETV
vector 558 RSUExampleScenario.node[111].veinsmobility acceleration ETV
vector 559 RSUExampleScenario.node[111].veinsmobility co2emission ETV
vector 560 RSUExampleScenario.node[112].veinsmobility posx ETV
vector 561 RSUExampleScenario.node[112].veinsmobility posy ETV
89	774825 7615 55 67535 54 337 284 0.973 8.5377272186901 579.20010421454 1439.5732322473
88	782440 8401 55 67535 54 337 284 -4.5 2.1310822762968 6.1295138395793 89.125807721295
87	790841 7732 54 67535 53 337 285 3.8698786158062 13.999116995411 3405.8567750041 41552.97704758
86	798573 7767 53 67535 52 337 286 1217.1070568897 2120.5688971151 457032.63990012 752969184.79527
85	806340 7758 53 67535 52 337 286 202.94870738813 2450.3597394241 419992.56691842 786335760.5772
vector 562 RSUExampleScenario.node[112].veinsmobility speed ETV
vector 563 RSUExampleScenario.node[112].veinsmobility acceleration ETV
vector 564 RSUExampleScenario.node[112].veinsmobility co2emission ETV
114	814303 7466 70 68309 69 339 271 0.973 9.3845509327609 576.87056282304 1622.552513717
113	821769 8290 70 68309 69 339 271 -2.4922948446457 2.3077287918143 6.7801600873334 92.328791963743
112	830059 7695 69 68309 68 339 272 4.1832233416825 13.997139654839 3408.4091185222 43720.251028916
111	837754 7731 68 68309 67 339 273 1216.6295800526 2120.9453101354 438046.96980072 725255454.99331
110	845485 7718 68 68309 67 339 273 200.92402318667 2450.1550019225 397125.5189969 740947316.56544
vector 565 RSUExampleScenario.node[113].veinsmobility posx ETV
vector 566 RSUExampleScenario.node[113].veinsmobility posy ETV
vector 567 RSUExampleScenario.node[113].veinsmobility speed ETV
124	853393 7360 76 68563 75 341 267 0.973 8.3392083846763 564.33974989348 1525.1312559893
123	860753 8177 76 68563 75 341 267 -3.3641743177556 2.2564944986859 6.676589804302 79.535280192866
122	868930 7600 75 68563 74 341 268 4.0735588402093 13.999299916551 3410.9530971458 44355.79170876
121	876530 7627 74 68563 73 341 269 1216.4641847555 2120.8731574817 434038.53085651 721645004.8654
120	884157 7628 74 68563 73 341 269 199.48737266543 2450.1930519535 400877.6980731 758116084.02493
vector 568 RSUExampleScenario.node[113].veinsmobility acceleration ETV
vector 569 RSUExampleScenario.node[113].veinsmobility co2emission ETV
129	891926 7271 79 69314 78 342 265 0.973 8.7205365289006 559.21549662126 1536.9888505674
128	899197 8149 79 69314 78 342 265 -2.4388622262347 2.1959245370305 5.2272713814894 73.709860056031
127	907346 7551 78 69314 77 342 266 4.0635240824116 13.999252574216 3404.0972664093 44518.944333352
126	914897 7570 77 69314 76 342 267 1216.1272392292 2120.5746393418 431110.4426198 717419395.37491
125	922467 7578 77 69314 76 342 267 204.08697971934 2450.61204914 397804.06999812 751070234.18499
vector 570 RSUExampleScenario.node[114].veinsmobility posx ETV
vector 571 RSUExampleScenario.node[114].veinsmobility posy ETV
vector 572 RSUExampleScenario.node[114].veinsmobility speed ETV
134	930235 7275 82 70070 81 344 264 0.973 8.2365585891526 558.50902824874 1510.5499891108
133	937510 8092 82 70070 81 344 264 -1.800034765683 2.1514025536249 6.3006196577568 67.539808752007
132	945602 7531 81 70070 80 344 265 4.0267229073465 13.999621272914 3405.4700065685 44697.638857707
131	953133 7560 80 70070 79 344 266 1217.398785118 2120.7444728371 429330.79656674 714339518.61376
130	960693 7562 80 70070 79 344 266 203.16499246156 2450.245049579 394727.29344879 743440461.55406
vector 573 RSUExampleScenario.node[114].veinsmobility acceleration ETV
vector 574 RSUExampleScenario.node[114].veinsmobility co2emission ETV
vector 575 RSUExampleScenario.node[115].veinsmobility posx ETV
vector 576 RSUExampleScenario.node[115].veinsmobility posy ETV
vector 577 RSUExampleScenario.node[115].veinsmobility speed ETV
vector 578 RSUExampleScenario.node[115].veinsmobility acceleration ETV
vector 579 RSUExampleScenario.node[115].veinsmobility co2emission ETV
vector 580 RSUExampleScenario.node[116].veinsmobility posx ETV
vector 581 RSUExampleScenario.node[116].veinsmobility posy ETV
119	968853 7777 73 71061 72 349 278 0.973 7.5416277572968 573.46881770727 1417.4121978966
118	976630 8553 73 71061 72 349 278 -4.4969576200014 2.031737553291 5.7794000767646 81.182265761015
117	985183 7919 72 71061 71 349 279 4.0859593419879 13.998363435396 3403.6008195917 42281.928195344
116	993102 7944 71 71061 70 349 280 1217.5621494381 2120.7082483275 448234.26434879 739791889.03833
115	1001046 7949 71 71061 70 349 280 203.50378749275 2450.5820902542 412915.10166674 773962417.45746
vector 582 RSUExampleScenario.node[116].veinsmobility speed ETV
vector 583 RSUExampleScenario.node[116].veinsmobility acceleration ETV
vector 584 RSUExampleScenario.node[116].veinsmobility co2emission ETV
139	1009200 7444 85 71805 84 351 268 0.973 7.8489798890004 572.04412510633 1553.6058875991
138	1016644 8262 85 71805 84 351 268 -2.3598040740222 2.1917019801144 6.7492569070216 80.460037843516
137	1024906 7665 84 71805 83 351 269 3.8169569386458 13.998507969014 3405.8023570471 44051.288719801
136	1032571 7700 83 71805 82 351 270 1216.0909004025 2120.9215816753 433594.99125493 718383667.11376
135	1040271 7691 83 71805 82 351 270 202.89812233055 2450.1729110724 394981.23747376 738102626.11945
vector 585 RSUExampleScenario.node[117].veinsmobility posx ETV
vector 586 RSUExampleScenario.node[117].veinsmobility posy ETV
vector 587 RSUExampleScenario.node[117].veinsmobility speed ETV
144	1048152 7445 88 72555 87 353 267 0.973 8.0491589463412 569.64043373048 1571.3736647865
143	1055597 8243 88 72555 87 353 267 -3.6888268362507 2.2684688731562 6.7471034815797 92.372572370045
142	1063840 7653 87 72555 86 353 268 4.0343364698305 13.999620908881 3407.5836577007 44278.773794269
141	1071493 7680 86 72555 85 353 269 1217.8389569297 2120.6139469184 431674.06331284 714608197.0195
140	1079173 7678 86 72555 85 353 269 201.1729655154 2450.3908839365 392282.58438773 732113280.72821
vector 588 RSUExampleScenario.node[117].veinsmobility acceleration ETV
vector 589 RSUExampleScenario.node[117].veinsmobility co2emission ETV
vector 590 RSUExampleScenario.node[118].veinsmobility posx ETV
vector 591 RSUExampleScenario.node[118].veinsmobility posy ETV
149	1087118 7432 91 72808 90 355 266 0.973 8.6397759745869 569.79331841392 1586.3083159493
148	1094550 8217 91 72808 90 355 266 -4.4090028646632 2.1844902744796 6.7725303467357 96.840082948006
147	1102767 7626 90 72808 89 355 267 4.0013211675714 13.999449843408 3411.871949075 44548.391804841
146	1110393 7656 89 72808 88 355 268 1216.2673290316 2120.7721794043 429735.71241503 710744512.25627
145	1118049 7648 89 72808 88 355 268 199.51596884732 2450.5693259261 389855.8034216 727102097.00469
vector 592 RSUExampleScenario.node[118].veinsmobility speed ETV
154	1125761 7371 94 72809 93 356 264 0.973 9.1179268217973 559.94542390938 1527.7788599036
153	1133132 8150 94 72809 93 356 264 -4.4791784844679 2.1234678969695 5.8404060417116 85.066709656006
152	1141282 7586 93 72809 92 356 265 4.0929231651139 13.999186862605 3403.0997042417 44625.344525243
151	1148868 7623 92 72809 91 356 266 1217.8601666279 2120.8488398083 426624.02786024 705661305.48506
150	1156491 7611 92 72809 91 356 266 203.75183544541 2450.5909072174 387861.3941767 723813159.19441
vector 593 RSUExampleScenario.node[118].veinsmobility acceleration ETV
vector 594 RSUExampleScenario.node[118].veinsmobility co2emission ETV
vector 595 RSUExampleScenario.node[119].veinsmobility posx ETV
vector 596 RSUExampleScenario.node[119].veinsmobility posy ETV
159	1164369 7341 97 73561 96 358 263 0.973 8.7639896884138 565.91242726869 1570.5885667165
158	1171710 8165 97 73561 96 358 263 -4.4743634569019 2.1511947196047 6.4525910646798 101.20530610505
157	1179875 7563 96 73561 95 358 264 4.2052558286512 13.998518423606 3406.309198585 44889.154373367
156	1187438 7598 95 73561 94 358 265 1216.9339146549 2120.951131341 425374.26344743 704042107.22473
155	1195036 7595 95 73561 94 358 265 202.86499015556 2450.6484816062 386920.47361649 722647557.1649
vector 597 RSUExampleScenario.node[119].veinsmobility speed ETV
vector 598 RSUExampleScenario.node[119].veinsmobility acceleration ETV
vector 599 RSUExampleScenario.node[119].veinsmobility co2emission ETV
164	1202836 7357 100 74311 99 360 262 0.973 8.4839578196736 559.58015819496 1488.4609594827
163	1210193 8147 100 74311 99 360 262 -4.4679277779243 2.1370237087226 6.3211653495404 87.377638482801
162	1218340 7535 99 74311 98 360 263 3.9195603011693 13.999084359321 3407.6649013112 44994.111487738
161	1225875 7574 98 74311 97 360 264 1216.1603420265 2120.6129671792 424630.531927 703973977.19821
160	1233449 7573 98 74311 97 360 264 201.54712046927 2450.3917266983 390605.50950225 734086489.25094
vector 600 RSUExampleScenario.node[120].veinsmobility posx ETV
vector 601 RSUExampleScenario.node[120].veinsmobility posy ETV
169	1241148 7211 103 74558 102 361 260 0.973 8.7362375013429 551.4282713015 1506.7577122279
168	1248359 8074 103 74558 102 361 260 -2.9975087788333 2.3321792534389 5.6883719818675 76.523929821636
167	1256433 7495 102 74558 101 361 261 3.9747482432421 13.999452173801 3401.1451923371 45164.151600207
166	1263928 7526 101 74558 100 361 262 1216.9316319209 2120.6686830437 421885.96803456 700238467.71758
165	1271454 7533 101 74558 100 361 262 204.29309086397 2450.2676099896 388495.22017921 729996864.10758
vector 602 RSUExampleScenario.node[120].veinsmobility speed ETV
vector 603 RSUExampleScenario.node[120].veinsmobility acceleration ETV
vector 604 RSUExampleScenario.node[120].veinsmobility co2emission ETV
174	1279192 7232 106 75289 105 363 259 0.973 7.9057198626446 557.49835442854 1536.0645888525
173	1286424 8063 106 75289 105 363 259 -3.7779383883907 2.2262654979038 5.9681617770084 89.033343385126
172	1294487 7476 105 75289 104 363 260 4.2292426157767 13.999056284162 3405.1356745384 45441.228524571
171	1301963 7494 104 75289 103 363 261 1218.8250738261 2120.7865838585 420460.0878767 698185841.72622
170	1309457 7492 104 75289 103 363 261 203.4447636581 2450.2577806491 386642.18091919 726025037.91175
vector 605 RSUExampleScenario.node[121].veinsmobility posx ETV
vector 606 RSUExampleScenario.node[121].veinsmobility posy ETV
vector 607 RSUExampleScenario.node[121].veinsmobility speed ETV
179	1317139 7175 109 76039 108 365 258 0.973 8.1947095032216 557.97544109682 1540.332096131
178	1324314 8032 109 76039 108 365 258 -3.3327581210373 2.326078177467 6.8888691861158 85.350195326941
177	1332346 7465 108 76039 107 365 259 3.828069966125 13.999447956108 3406.9372190166 45668.664767043
176	1339811 7472 107 76039 106 365 260 1216.7429118725 2120.6643102393 418937.01469648 695788366.34988
175	1347283 7485 107 76039 106 365 260 202.09572849295 2450.2801452257 385451.77450906 723889860.57127
vector 608 RSUExampleScenario.node[121].veinsmobility acceleration ETV
vector 609 RSUExampleScenario.node[121].veinsmobility co2emission ETV
184	1354909 7112 112 76040 111 366 256 0.973 8.977512736819 553.90540180224 1524.0447418269
183	1362021 7969 112 76040 111 366 256 -4.4691865845785 2.2087823259179 5.4584458537677 93.146946146793
182	1369990 7394 111 76040 110 366 257 3.9549282409494 13.999775471583 3401.1421160503 45827.696466748
181	1377384 7428 110 76040 109 366 258 1216.107400299 2120.8118573986 416008.83150247 691487379.82804
180	1384812 7419 110 76040 109 366 258 204.59425010358 2450.57502514 384221.55394963 722021209.86722
vector 610 RSUExampleScenario.node[122].veinsmobility posx ETV
vector 611 RSUExampleScenario.node[122].veinsmobility posy ETV
vector 612 RSUExampleScenario.node[122].veinsmobility speed ETV
vector 613 RSUExampleScenario.node[122].veinsmobility acceleration ETV
vector 614 RSUExampleScenario.node[122].veinsmobility co2emission ETV
189	1392562 7299 115 77008 114 369 256 0.973 8.1136061922364 561.28887479188 1506.688183248
188	1399861 7973 115 77008 114 369 256 -4.2346022341373 2.1988444976485 5.2526780162222 107.64393483406
187	1407834 7399 114 77008 113 369 257 4.0468560271259 13.99930684353 3403.3303035215 45627.663811115
186	1415233 7436 113 77008 112 369 258 1217.3200882794 2120.798846662 415876.33967812 691140993.41663
185	1422669 7437 113 77008 112 369 258 204.06646797631 2450.2792068355 387517.14138883 730049061.6032
vector 615 RSUExampleScenario.node[123].veinsmobility posx ETV
vector 616 RSUExampleScenario.node[123].veinsmobility posy ETV
vector 617 RSUExampleScenario.node[123].veinsmobility speed ETV
194	1430296 7269 118 77740 117 371 255 0.973 8.2716049847046 558.14288094608 1505.7397491497
193	1437565 7950 118 77740 117 371 255 -3.4962148275985 2.0990842086053 5.5054455561284 93.223807199746
192	1445515 7372 117 77740 116 371 256 4.2921992871535 13.999734012587 3403.4875161606 45800.659935955
191	1452887 7403 116 77740 115 371 257 1217.2008474758 2120.9291756097 414529.67072087 689353352.12549
190	1460290 7403 116 77740 115 371 257 203.75891799724 2450.5945628978 385862.30870562 726658445.93856
vector 618 RSUExampleScenario.node[123].veinsmobility acceleration ETV
vector 619 RSUExampleScenario.node[123].veinsmobility co2emission ETV
vector 620 RSUExampleScenario.node[124].veinsmobility posx ETV
vector 621 RSUExampleScenario.node[124].veinsmobility posy ETV
vector 622 RSUExampleScenario.node[124].veinsmobility speed ETV
vector 623 RSUExampleScenario.node[124].veinsmobility acceleration ETV
vector 624 RSUExampleScenario.node[124].veinsmobility co2emission ETV
vector 625 RSUExampleScenario.node[125].veinsmobility posx ETV
vector 626 RSUExampleScenario.node[125].veinsmobility posy ETV
vector 627 RSUExampleScenario.node[125].veinsmobility speed ETV
vector 628 RSUExampleScenario.node[125].veinsmobility acceleration ETV
vector 629 RSUExampleScenario.node[125].veinsmobility co2emission ETV
199	1468496 7381 121 79434 120 378 259 0.973 8.7515097329828 561.68087666994 1521.1822138972
198	1475877 8078 121 79434 120 378 259 -4.4817993315163 2.1892562304786 6.4375392118304 98.712120412924
197	1483955 7497 120 79434 119 378 260 4.099163855175 13.999926685586 3408.0544538652 45308.042356044
196	1491452 7521 119 79434 118 378 261 1216.1682521012 2120.6153555 420206.47323232 697424079.92534
195	1498973 7538 119 79434 118 378 261 201.28836490854 2450.3876093669 389691.2688545 733571203.38308
vector 630 RSUExampleScenario.node[126].veinsmobility posx ETV
vector 631 RSUExampleScenario.node[126].veinsmobility posy ETV
vector 632 RSUExampleScenario.node[126].veinsmobility speed ETV
204	1506701 7334 124 80163 123 380 258 0.973 7.9863623358215 566.45735648222 1557.1621805025
203	1514035 8070 124 80163 123 380 258 -4.3946774719865 2.3720240620477 7.0094892971049 110.43284373253
202	1522105 7479 123 80163 122 380 259 3.9084870939956 13.999953481075 3408.2744494814 45482.834951519
201	1529584 7503 122 80163 121 380 260 1218.18641752 2120.8055276666 418864.37935629 695650070.24383
200	1537087 7508 122 80163 121 380 260 200.18120621471 2450.3021220177 388290.33569392 730871759.95555
vector 633 RSUExampleScenario.node[126].veinsmobility acceleration ETV
vector 634 RSUExampleScenario.node[126].veinsmobility co2emission ETV
209	1544736 7289 127 80164 126 381 256 0.973 9.2578465620232 559.80280278817 1562.0470799765
208	1552025 8014 127 80164 126 381 256 -3.2418496533136 2.2906016429001 5.4687209467187 99.203706489569
207	1560039 7425 126 80164 125 381 257 4.076561782019 13.99996162056 3401.1332063684 45676.007078267
206	1567464 7463 125 80164 124 381 258 1216.865656795 2120.8222938767 416164.02854947 692088605.09313
205	1574927 7451 125 80164 124 381 258 204.29582884593 2450.335570144 386236.68405644 726868121.78943
vector 635 RSUExampleScenario.node[127].veinsmobility posx ETV
vector 636 RSUExampleScenario.node[127].veinsmobility posy ETV
vector 637 RSUExampleScenario.node[127].veinsmobility speed ETV
214	1582568 7249 130 80408 129 383 255 0.973 8.5557658696671 554.7020407495 1489.3158603192
213	1589817 7974 130 80408 129 383 255 -4.4680611133249 2.2629094567965 5.1131292787923 98.022205797146
212	1597791 7397 129 80408 128 383 256 3.9824005470828 13.999635570813 3401.5559475617 45751.728398599
211	1605188 7425 128 80408 127 383 257 1216.1262968294 2120.5825332645 414461.04170294 689153016.87122
210	1612613 7436 128 80408 127 383 257 204.60365000973 2450.4574770868 386380.87080265 727889311.20014
vector 638 RSUExampleScenario.node[127].veinsmobility acceleration ETV
vector 639 RSUExampleScenario.node[127].veinsmobility co2emission ETV
vector 640 RSUExampleScenario.node[128].veinsmobility posx ETV
vector 641 RSUExampleScenario.node[128].veinsmobility posy ETV
vector 642 RSUExampleScenario.node[128].veinsmobility speed ETV
219	1620380 7287 133 81864 132 386 255 0.973 8.2368303457889 564.33650357684 1542.6113782017
218	1627667 7991 133 81864 132 386 255 -4.4668588400031 2.2102082806849 7.0199862114659 107.44108946822
217	1635658 7409 132 81864 131 386 256 3.8414571175372 13.999531805476 3409.9923140069 45967.877724626
216	1643067 7439 131 81864 130 386 257 1216.615680879 2120.8973720409 414437.33821272 689075011.73737
215	1650506 7438 131 81864 130 386 257 200.16949749447 2450.6115449556 385993.8764492 727125931.22096
vector 643 RSUExampleScenario.node[128].veinsmobility acceleration ETV
vector 644 RSUExampleScenario.node[128].veinsmobility co2emission ETV
vector 645 RSUExampleScenario.node[129].veinsmobility posx ETV
vector 646 RSUExampleScenario.node[129].veinsmobility posy ETV
vector 647 RSUExampleScenario.node[129].veinsmobility speed ETV
vector 648 RSUExampleScenario.node[129].veinsmobility acceleration ETV
vector 649 RSUExampleScenario.node[129].veinsmobility co2emission ETV
224	1658416 7342 136 82828 135 390 256 0.973 8.3212330994605 562.00244318829 1528.6983568839
223	1665758 8011 136 82828 135 390 256 -3.9367011920428 2.2492910719803 6.111692050914 110.16478998065
222	1673769 7448 135 82828 134 390 257 4.0076643208797 13.999273895498 3403.8683179612 45630.298233896
221	1681217 7478 134 82828 133 390 258 1216.8180388045 2120.8298467882 415777.94222933 690797400.78125
220	1688695 7468 134 82828 133 390 258 203.7127797053 2450.3506363129 387372.94754737 729716312.29877
vector 650 RSUExampleScenario.node[130].veinsmobility posx ETV
vector 651 RSUExampleScenario.node[130].veinsmobility posy ETV
vector 652 RSUExampleScenario.node[130].veinsmobility speed ETV
229	1696353 7241 139 83557 138 392 255 0.973 7.9953167118351 560.23131570582 1562.8662540379
228	1703594 7987 139 83557 138 392 255 -3.7137429738747 2.1547421413963 6.1528531832161 100.76945121462
227	1711581 7430 138 83557 137 392 256 4.2020141742253 13.999943969664 3403.3618577749 45835.868012118
226	1719011 7450 137 83557 136 392 257 1217.9871648978 2120.8485264666 414578.19700259 689517780.14224
225	1726461 7450 137 83557 136 392 257 203.42654064437 2450.4083839094 385657.41178258 726127951.29618
vector 653 RSUExampleScenario.node[130].veinsmobility acceleration ETV
vector 654 RSUExampleScenario.node[130].veinsmobility co2emission ETV
vector 655 RSUExampleScenario.node[131].veinsmobility posx ETV
vector 656 RSUExampleScenario.node[131].veinsmobility posy ETV
vector 657 RSUExampleScenario.node[131].veinsmobility speed ETV
vector 658 RSUExampleScenario.node[131].veinsmobility acceleration ETV
vector 659 RSUExampleScenario.node[131].veinsmobility co2emission ETV
vector 660 RSUExampleScenario.node[132].veinsmobility posx ETV
vector 661 RSUExampleScenario.node[132].veinsmobility posy ETV
vector 662 RSUExampleScenario.node[132].veinsmobility speed ETV
234	1734573 7403 142 85004 141 398 258 0.973 9.0447616853367 556.93278335111 1480.3845824231
233	1741976 8077 142 85004 141 398 258 -4.5 2.0936000485322 6.1072682724416 93.617490076316
232	1750053 7520 141 85004 140 398 259 3.9728593152307 13.999837429631 3403.2358894147 45316.765056508
231	1757573 7540 140 85004 139 398 260 1216.6680656634 2120.5744014932 418771.22018967 695355331.50952
230	1765113 7545 140 85004 139 398 260 203.72431603889 2450.4733381231 389250.85310034 733035749.06794
vector 663 RSUExampleScenario.node[132].veinsmobility acceleration ETV
vector 664 RSUExampleScenario.node[132].veinsmobility co2emission ETV
vector 665 RSUExampleScenario.node[133].veinsmobility posx ETV
vector 666 RSUExampleScenario.node[133].veinsmobility posy ETV
vector 667 RSUExampleScenario.node[133].veinsmobility speed ETV
vector 668 RSUExampleScenario.node[133].veinsmobility acceleration ETV
vector 669 RSUExampleScenario.node[133].veinsmobility co2emission ETV
vector 670 RSUExampleScenario.node[134].veinsmobility posx ETV
vector 671 RSUExampleScenario.node[134].veinsmobility posy ETV
vector 672 RSUExampleScenario.node[134].veinsmobility speed ETV
vector 673 RSUExampleScenario.node[134].veinsmobility acceleration ETV
vector 674 RSUExampleScenario.node[134].veinsmobility co2emission ETV
vector 675 RSUExampleScenario.node[135].veinsmobility posx ETV
vector 676 RSUExampleScenario.node[135].veinsmobility posy ETV
vector 677 RSUExampleScenario.node[135].veinsmobility speed ETV
vector 678 RSUExampleScenario.node[135].veinsmobility acceleration ETV
vector 679 RSUExampleScenario.node[135].veinsmobility co2emission ETV
244	1773792 7501 148 87720 147 408 262 0.973 8.1711553059202 564.45078926315 1512.8988540461
243	1781293 8246 148 87720 147 408 262 -4.4506076934011 2.3509415144575 6.495662763434 97.691570060518
242	1789539 7653 147 87720 146 408 263 4.0897017584328 13.999517856354 3406.9443604446 44795.50829475
241	1797192 7673 146 87720 145 408 264 1216.5678090844 2120.9318720577 426650.00596932 710733744.49738
240	1804865 7673 146 87720 145 408 264 202.09882856661 2450.2818556479 399481.19775925 758001182.33288
vector 680 RSUExampleScenario.node[136].veinsmobility posx ETV
vector 681 RSUExampleScenario.node[136].veinsmobility posy ETV
vector 682 RSUExampleScenario.node[136].veinsmobility speed ETV
249	1812728 7449 151 87970 150 410 261 0.973 8.4488019302315 566.04304278801 1542.8044958556
248	1820177 8196 151 87970 150 410 261 -3.085076191819 2.2052959285281 6.7005208008757 87.888793022234
247	1828373 7622 150 87970 149 410 262 4.0822673356419 13.999474129106 3408.6731044934 45013.284981776
246	1835995 7652 149 87970 148 410 263 1216.4130676147 2120.632474198 425170.97013071 708605718.50391
245	1843647 7649 149 87970 148 410 263 201.14183300885 2450.6062124377 396695.59494604 751205091.4271
vector 683 RSUExampleScenario.node[136].veinsmobility acceleration ETV
vector 684 RSUExampleScenario.node[136].veinsmobility co2emission ETV
vector 685 RSUExampleScenario.node[137].veinsmobility posx ETV
vector 686 RSUExampleScenario.node[137].veinsmobility posy ETV
vector 687 RSUExampleScenario.node[137].veinsmobility speed ETV
vector 688 RSUExampleScenario.node[137].veinsmobility acceleration ETV
vector 689 RSUExampleScenario.node[137].veinsmobility co2emission ETV
vector 690 RSUExampleScenario.node[138].veinsmobility posx ETV
vector 691 RSUExampleScenario.node[138].veinsmobility posy ETV
vector 692 RSUExampleScenario.node[138].veinsmobility speed ETV
vector 693 RSUExampleScenario.node[138].veinsmobility acceleration ETV
vector 694 RSUExampleScenario.node[138].veinsmobility co2emission ETV
vector 695 RSUExampleScenario.node[139].veinsmobility posx ETV
vector 696 RSUExampleScenario.node[139].veinsmobility posy ETV
vector 697 RSUExampleScenario.node[139].veinsmobility speed ETV
vector 698 RSUExampleScenario.node[139].veinsmobility acceleration ETV
vector 699 RSUExampleScenario.node[139].veinsmobility co2emission ETV
vector 700 RSUExampleScenario.node[140].veinsmobility posx ETV
vector 701 RSUExampleScenario.node[140].veinsmobility posy ETV
239	1852556 7999 145 91474 144 421 278 0.973 8.2819227160116 575.09207784575 1439.6304272761
238	1860555 8777 145 91474 144 421 278 -4.4175961841194 2.2375676117092 6.4564478118784 95.67888009306
237	1869332 8114 144 91474 143 421 279 3.8298766437329 13.999388369587 3405.8511989997 42348.675121558
236	1877446 8150 143 91474 142 421 280 1216.4006759413 2120.7687182454 448270.33415845 739874719.60472
235	1885596 8155 143 91474 142 421 280 202.28598129784 2450.4875522192 412859.28637975 774195760.02108
vector 702 RSUExampleScenario.node[140].veinsmobility speed ETV
vector 703 RSUExampleScenario.node[140].veinsmobility acceleration ETV
vector 704 RSUExampleScenario.node[140].veinsmobility co2emission ETV
254	1893956 7735 154 92226 153 423 271 0.973 8.6071349907313 581.85999017448 1596.9925387851
253	1901691 8491 154 92226 153 423 271 -2.7212127513225 2.3306396728125 7.0994357406052 89.943380044778
252	1910182 7933 153 92226 152 423 272 4.1418937353608 13.99897103823 3409.476543689 43628.373989108
251	1918115 7959 152 92226 151 423 273 1217.4135739161 2120.8031803528 438268.25396409 725804489.5296
250	1926074 7965 152 92226 151 423 273 199.82051751914 2450.235439993 399525.48195983 747401978.06671
vector 705 RSUExampleScenario.node[141].veinsmobility posx ETV
vector 706 RSUExampleScenario.node[141].veinsmobility posy ETV
259	1934165 7642 157 92227 156 424 269 0.973 8.5538133390101 571.18052747229 1558.4475660825
258	1941807 8456 157 92227 156 424 269 -2.3650503065184 2.2390187778906 5.5724799073083 82.058751080234
257	1950263 7873 156 92227 155 424 270 3.9558952104144 13.997208599222 3402.3643194987 43814.243316435
256	1958136 7908 155 92227 154 424 271 1216.5513956919 2120.9323728662 435103.65692161 720777224.21953
255	1966044 7901 155 92227 154 424 271 204.29234867985 2450.1542553023 396282.7800583 740057647.33419
vector 707 RSUExampleScenario.node[141].veinsmobility speed ETV
vector 708 RSUExampleScenario.node[141].veinsmobility acceleration ETV
vector 709 RSUExampleScenario.node[141].veinsmobility co2emission ETV
264	1974150 7631 160 92989 159 426 268 0.973 8.3535278283831 563.2610184298 1500.4890908153
263	1981781 8460 160 92989 159 426 268 -3.7581532215821 2.2690585186309 5.5705461365257 83.859079628681
262	1990241 7857 159 92989 158 426 269 3.894362128734 13.999630116643 3402.6515076155 43973.690346727
261	1998098 7884 158 92989 157 426 270 1216.9900836078 2120.8458784949 432780.30131099 715571083.54244
260	2005982 7890 158 92989 157 426 270 203.78829004453 2450.4029156481 393342.37179753 733447418.88002
vector 710 RSUExampleScenario.node[142].veinsmobility posx ETV
vector 711 RSUExampleScenario.node[142].veinsmobility posy ETV
vector 712 RSUExampleScenario.node[142].veinsmobility speed ETV
269	2014062 7637 163 93241 162 428 267 0.973 8.3606942042475 564.60798735767 1517.4751408742
268	2021699 8442 163 93241 162 428 267 -4.4644130047621 2.1853881650139 6.2454064407245 95.980572142339
267	2030141 7819 162 93241 161 428 268 4.0435997821582 13.99969553187 3405.2487367403 44207.162851451
266	2037960 7844 161 93241 160 428 269 1216.6593368109 2120.8073255885 431101.8290244 712425702.20815
265	2045804 7852 161 93241 160 428 269 202.95861467754 2450.3045464901 392375.55760794 733106951.16477
vector 713 RSUExampleScenario.node[142].veinsmobility acceleration ETV
vector 714 RSUExampleScenario.node[142].veinsmobility co2emission ETV
vector 715 RSUExampleScenario.node[143].veinsmobility posx ETV
vector 716 RSUExampleScenario.node[143].veinsmobility posy ETV
274	2053923 7576 166 93987 165 430 266 0.973 8.740516268217 561.71266134489 1513.8773324612
273	2061499 8362 166 93987 165 430 266 -3.1275735893646 2.3135089199804 6.8378992818057 81.233955956236
272	2069861 7802 165 93987 164 430 267 3.8368940664504 13.999917641724 3407.6096465479 44443.033463279
271	2077663 7824 164 93987 163 430 268 1216.7651139246 2120.6073851632 429681.39678095 710341616.71308
270	2085487 7833 164 93987 163 430 268 201.11685714673 2450.4051767791 390690.35185063 730057120.53781
vector 717 RSUExampleScenario.node[143].veinsmobility speed ETV
279	2093384 7519 169 94736 168 431 264 0.973 8.1036067999784 563.87217104861 1544.9516576674
278	2100903 8345 169 94736 168 431 264 -3.7412731897868 2.2028116900939 5.4186324534348 89.452632357726
277	2109248 7753 168 94736 167 431 265 3.9559695225127 13.999723644319 3400.3548386233 44623.998653514
276	2117001 7790 167 94736 166 431 266 1217.1922002556 2120.6576921931 426940.94179272 706622846.63817
275	2124791 7776 167 94736 166 431 266 204.31109603948 2450.2934105856 388567.11523908 725971494.34629
vector 718 RSUExampleScenario.node[143].veinsmobility acceleration ETV
vector 719 RSUExampleScenario.node[143].veinsmobility co2emission ETV
vector 720 RSUExampleScenario.node[144].veinsmobility posx ETV
vector 721 RSUExampleScenario.node[144].veinsmobility posy ETV
vector 722 RSUExampleScenario.node[144].veinsmobility speed ETV
289	2132898 7475 175 94985 174 434 261 0.973 7.8615808199012 558.45747978476 1474.7172551202
288	2140373 8266 175 94985 174 434 261 -4.2723126905517 2.170936514684 5.6699060032308 86.66276092944
287	2148639 7667 174 94985 173 434 262 4.0631847788148 13.999037386135 3402.4212778757 45008.031169622
286	2156306 7709 173 94985 172 434 263 1218.7097700695 2120.70837685 427061.68684247 714636639.64731
285	2164015 7706 173 94985 172 434 263 203.5165238363 2450.6241235343 408145.32357132 783074575.80117
vector 723 RSUExampleScenario.node[144].veinsmobility acceleration ETV
vector 724 RSUExampleScenario.node[144].veinsmobility co2emission ETV
vector 725 RSUExampleScenario.node[145].veinsmobility posx ETV
vector 726 RSUExampleScenario.node[145].veinsmobility posy ETV
vector 727 RSUExampleScenario.node[145].veinsmobility speed ETV
vector 728 RSUExampleScenario.node[145].veinsmobility acceleration ETV
vector 729 RSUExampleScenario.node[145].veinsmobility co2emission ETV
294	2172193 7478 178 96481 177 438 262 0.973 8.1115495625511 564.64684699062 1538.0841953626
293	2179671 8295 178 96481 177 438 262 -4.4971326859058 2.2425583224092 6.2066635251819 96.024414863271
292	2187966 7700 177 96481 176 438 263 3.902580489948 13.998121224877 3403.6932068091 44823.54732781
291	2195666 7738 176 96481 175 438 264 1218.527752893 2120.8664442748 428351.75696296 716412371.89116
290	2203404 7744 176 96481 175 438 264 202.95482009021 2450.3091195096 406320.62980798 776943412.66558
vector 730 RSUExampleScenario.node[146].veinsmobility posx ETV
vector 731 RSUExampleScenario.node[146].veinsmobility posy ETV
vector 732 RSUExampleScenario.node[146].veinsmobility speed ETV
vector 733 RSUExampleScenario.node[146].veinsmobility acceleration ETV
vector 734 RSUExampleScenario.node[146].veinsmobility co2emission ETV
299	2211479 7470 181 96733 180 441 262 0.973 8.1897185230666 567.84819737738 1552.2452351312
298	2218949 8310 181 96733 180 441 262 -4.4059844515687 2.3418374900171 6.0146155065823 97.326532153662
297	2227259 7712 180 96733 179 441 263 4.0885431242836 13.999456548463 3402.9266563359 44758.181708381
296	2234971 7740 179 96733 178 441 264 1218.5793349259 2120.586674762 428208.17389506 716094733.77735
295	2242711 7744 179 96733 178 441 264 203.4570776046 2450.5648851742 404178.5892321 770701025.90024
vector 735 RSUExampleScenario.node[147].veinsmobility posx ETV
vector 736 RSUExampleScenario.node[147].veinsmobility posy ETV
vector 737 RSUExampleScenario.node[147].veinsmobility speed ETV
vector 738 RSUExampleScenario.node[147].veinsmobility acceleration ETV
vector 739 RSUExampleScenario.node[147].veinsmobility co2emission ETV
309	2250786 7391 187 98209 186 444 259 0.973 8.4121376781165 558.9774348037 1517.8336764762
308	2258177 8205 187 98209 186 444 259 -4.4161880885578 2.1922206434747 5.942058916178 89.143728343832
[...]
794	6156871 7842 107897 152621 477 735 259 0.973 8.8043195440138 556.7331064903 1502.5717487868
793	6164713 8625 107897 152621 477 735 259 -4.1365395692665 2.3088661731989 5.3839656711106 89.079112611364
792	6173338 8028 107137 152621 476 735 260 4.0133361884037 13.999490898992 3399.8031871176 45128.113613866
791	6181366 8060 107136 152621 475 735 261 1217.2611938016 2120.7998531284 423094.86821853 706932415.82342
790	6189426 8060 107136 152621 475 735 261 204.32443060586 2450.5290608355 401766.94841854 766893335.14721
799	6197486 7950 108675 153163 480 742 263 0.973 8.8396614103816 563.22560474358 1524.2648861843
798	6205436 8725 108675 153163 480 742 263 -3.9553962102078 2.4716959030484 6.451647516035 88.634273374583
797	6214161 8150 108674 153163 479 742 264 3.8197848988351 13.999879661852 3403.4121673942 44567.183138216
796	6222311 8175 107898 153163 478 742 265 1216.6203742549 2120.9628996225 428542.96626353 714456737.58711
795	6230486 8182 107898 153163 478 742 265 203.44598064199 2450.3882713844 401112.87534654 761305546.12981
804	6238668 7933 109674 153291 483 744 262 0.973 8.0678248016189 560.79540872376 1488.0878355191
803	6246601 8683 109674 153291 483 744 262 -2.699775149318 2.1365375980339 6.2032782166068 74.875825763665
802	6255284 8122 108929 153291 482 744 263 3.9356382553635 13.999429371869 3404.2499652037 44756.570003673
801	6263406 8147 108928 153291 481 744 264 1217.0313378889 2120.6674055764 426984.72691803 712086934.00195
800	6271553 8154 108928 153291 481 744 264 203.24113107612 2450.468858235 398341.41512806 754475236.03737
809	6279707 7843 110422 153414 486 746 261 0.973 8.7225243301695 559.46950171651 1545.6807832262
808	6287550 8651 110422 153414 486 746 261 -1.9290106160162 2.2876615130901 6.0812371097498 77.300182961736
807	6296201 8097 110421 153414 485 746 262 3.8576047233828 13.999189929145 3405.977470898 45041.793471824
806	6304298 8125 109675 153414 484 746 263 1218.3627235768 2120.8338758778 425312.96846544 709324866.80679
805	6312423 8120 109675 153414 484 746 263 202.9952974515 2450.3085443669 395279.70903056 747032336.24117
789	6320543 8672 106885 153996 474 757 284 0.973 9.1056794635357 575.19632459749 1416.5723015745
788	6329215 9478 106885 153996 474 757 284 -4.4114079804417 2.1427334694564 5.3549475034999 81.881639297546
787	6338693 8800 106883 153996 473 757 285 4.0378388392831 13.997709955622 3400.4420868249 41406.552640951
786	6347493 8838 106115 153996 472 757 286 1216.4336533705 2120.6394447722 457051.09949681 753049279.60409
785	6356331 8840 106115 153996 472 757 286 204.59909701184 2450.2937770343 420540.31231025 787388063.6129
814	6365171 8145 111411 154111 489 759 271 0.973 8.359900376615 570.91675831986 1543.2574225335
813	6373316 8968 111411 154111 489 759 271 -2.1598202330285 2.2719249323104 5.4820163467285 76.298144495512
812	6382284 8395 110672 154111 488 759 272 4.0992105301935 13.999107491144 3402.7951440024 43591.875153484
811	6390679 8428 110671 154111 487 759 273 1217.1974340351 2120.72508319 438194.14115305 725791798.14813
810	6399107 8425 110671 154111 487 759 273 204.05371695338 2450.2436252383 397797.20173635 742455168.32082
819	6407532 8148 112159 154221 492 761 270 0.973 8.919787472808 566.75271659298 1521.4163819537
818	6415680 8957 112159 154221 492 761 270 -3.7463855856933 2.2250563257048 5.938112077413 83.66555597342
817	6424637 8372 112158 154221 491 761 271 4.2973296843433 13.998564723209 3406.7405557901 43831.056342099
816	6433009 8399 111412 154221 490 761 272 1216.634598258 2120.7348519946 435951.23673273 720883228.23012
815	6441408 8401 111412 154221 490 761 272 203.42742732121 2450.134120383 394787.33051365 735468577.80569
824	6449809 8129 113131 154326 495 763 269 0.973 8.0002503402784 567.4634395884 1528.8500735283
823	6457938 8948 113131 154326 495 763 269 -3.5790708853839 2.2288731019804 6.2028847146068 83.24670267922
822	6466886 8335 112404 154326 494 763 270 3.834108656627 13.999845238558 3405.8589333404 44024.694916649
821	6475221 8380 112403 154326 493 763 271 1216.6361500062 2120.6056103678 434079.8886297 717260262.94937
820	6483601 8376 112403 154326 493 763 271 202.9789137434 2450.404545279 392390.08734455 730564928.19412
829	6491977 8092 113873 154426 498 765 268 0.973 8.4667917052853 571.51809467859 1592.9977170554
828	6500069 8902 113873 154426 498 765 268 -4.5 2.2231529200706 7.0977889268139 102.95345060804
827	6508971 8302 113872 154426 497 765 269 4.1530240940197 13.99936553309 3410.9379095637 44317.10632098
826	6517273 8347 113132 154426 496 765 270 1216.9990174826 2120.5777058164 432318.96948239 713979248.98681
825	6525620 8349 113132 154426 496 765 270 199.97887117229 2450.504926511 390391.09623315 726760727.67972
834	6533969 8016 114847 154529 501 766 266 0.973 8.2402326968553 561.20139138445 1516.6539109026
833	6541985 8854 114847 154529 501 766 266 -4.4709272411334 2.1458265870949 5.6609522498636 89.248358577983
832	6550839 8251 114117 154529 500 766 267 3.926736904082 13.999088714824 3402.0298775842 44407.464359636
831	6559090 8282 114116 154529 499 766 268 1216.2384705273 2120.8072821191 429374.1518822 709461650.07406
830	6567372 8268 114116 154529 499 766 268 204.06440169446 2450.5833934642 388714.3134156 724270560.4902
839	6575640 8021 115589 154623 504 768 265 0.973 8.4346382122374 559.44999181385 1451.3831536579
838	6583661 8822 115589 154623 504 768 265 -4.4105510345659 2.0894193690969 6.1027902291248 87.451444435045
837	6592483 8211 115588 154623 503 768 266 4.1017705356202 13.999746331112 3405.4326463189 44603.216204027
836	6600694 8250 114848 154623 502 768 267 1216.3283810001 2120.5615808321 428912.99951974 710114617.45859
835	6608944 8245 114848 154623 502 768 267 203.22158417443 2450.5028007114 391665.84480983 734163850.39863
844	6617189 7910 116311 154715 507 770 264 0.973 8.8358638065162 562.07221321405 1561.0763666368
843	6625099 8782 116311 154715 507 770 264 -2.6878692153924 2.3051828892645 6.8316533504577 82.341627040644
842	6633881 8172 115831 154715 506 770 265 3.894009530078 13.997429719314 3409.078645472 44894.100978837
841	6642053 8199 115830 154715 505 770 266 1216.6346910046 2120.5698962379 427612.57796287 708503876.0937
840	6650252 8221 115830 154715 505 770 266 201.05326874019 2450.4851311065 389764.11457183 730059968.7106
849	6658473 7869 117260 154716 510 771 262 0.973 8.1043310040118 560.73506349001 1515.5571024255
848	6666342 8712 117260 154716 510 771 262 -3.9407010633185 2.0669845038699 5.2934158963003 93.718246531637
847	6675054 8127 117025 154716 509 771 263 4.2062134266339 13.999783107711 3401.6457110219 44968.371522552
846	6683181 8153 116548 154716 508 771 264 1217.3977213493 2120.8361917753 424702.60595942 704198081.68906
845	6691334 8153 116548 154716 508 771 264 204.30937816284 2450.3738242157 388107.00030664 727116162.22496
854	6699487 7841 117979 154806 513 773 261 0.973 8.5697729778572 558.40693801451 1521.6469861113
853	6707328 8656 117979 154806 513 773 261 -2.8973136194752 2.0820292570349 6.1048835315594 77.489593586743
852	6715984 8093 117977 154806 512 773 262 4.0381667546223 13.99981281495 3405.4587223166 45232.843863175
851	6724077 8127 117263 154806 511 773 263 1216.3549617203 2120.5825797236 423186.80076443 701830680.62623
850	6732204 8124 117263 154806 511 773 263 203.45873608417 2450.4586545259 386368.21402072 723525633.59016
859	6740328 7824 118942 154900 516 775 260 0.973 8.1407289815667 561.43834847087 1533.2379875129
858	6748152 8633 118942 154900 516 775 260 -4.4342574079242 2.2235120989429 6.4071186299254 96.986639515911
857	6756785 8063 118218 154900 515 775 261 4.0414044981825 13.999604763726 3408.0674338985 45420.875592368
856	6764848 8085 118217 154900 514 775 262 1216.3968123998 2120.7164937844 421664.70014965 699411622.12333
855	6772933 8093 118217 154900 514 775 262 202.21792148706 2450.1652060709 385973.22784542 723623916.56523
864	6781026 7846 119684 154989 519 777 259 0.973 8.2620255384361 565.94926267386 1542.40456823
863	6788872 8608 119684 154989 519 777 259 -4.3158771894801 2.233733499113 6.7740335340092 98.118169926085
862	6797480 8037 119683 154989 518 777 260 4.0364655445539 13.999473759504 3410.0893110594 45434.664822839
861	6805517 8074 118943 154989 517 777 261 1216.4828087082 2120.7876692349 420095.07764643 697008229.66095
860	6813591 8059 118943 154989 517 777 261 200.17693712702 2450.2569454907 387891.02526612 729357231.79496
869	6821650 7737 120655 155072 522 778 257 0.973 8.3469036605783 562.85323668267 1579.3788502139
868	6829387 8541 120655 155072 522 778 257 -4.2783481556149 2.2383756102668 5.9880797305901 101.9610389549
867	6837928 7979 119928 155072 521 778 258 3.9493746380092 13.998292805511 3402.1105318104 45615.616686791
866	6845907 8001 119927 155072 520 778 259 1218.0140241776 2120.7707447316 417552.75787697 693983618.90272
865	6853908 8006 119927 155072 520 778 259 203.99912249926 2450.2136737482 386124.48401482 726047805.27111
874	6861914 7693 121394 155152 525 780 256 0.973 8.3318261790221 555.56294162584 1532.9113387593
873	6869607 8509 121394 155152 525 780 256 -3.470845894702 2.1352475376148 6.1606514528512 84.114539174346
872	6878116 7936 121393 155152 524 780 257 4.113575598616 13.999921898553 3406.0571350145 45873.931979462
871	6886052 7961 120656 155152 523 780 258 1216.5632610451 2120.7143568741 416071.31065422 691747895.14328
870	6894013 7965 120656 155152 523 780 258 203.17666374031 2450.5486098382 384626.82410508 723027411.30709
879	6901978 7675 122385 155227 528 782 255 0.973 9.1136726022871 561.44629186434 1586.6815483934
878	6909653 8473 122385 155227 528 782 255 -4.499720206632 2.1996908731642 6.3384825903897 105.65744273608
877	6918126 7905 121640 155227 527 782 256 3.9812550229181 13.999923651644 3407.1286793314 46101.918388103
876	6926031 7933 121639 155227 526 782 257 1216.2658425728 2120.8998877164 414487.36089195 689178509.50115
875	6933964 7937 121639 155227 526 782 257 202.33665315772 2450.6064243817 383744.50286553 721712239.6033
884	6941901 7904 123139 155450 531 789 259 0.973 8.8187695006609 556.69772520724 1459.0112346219
883	6949805 8630 123139 155450 531 789 259 -4.4135939525775 2.1010104350885 5.0845496077634 87.708345465995
882	6958435 8037 123138 155450 530 789 260 4.0157036276905 13.998991238235 3401.7863943933 45131.779690382
881	6966472 8064 122386 155450 529 789 261 1217.6781164613 2120.7378101703 420206.75521795 697432164.0707
880	6974536 8067 122386 155450 529 789 261 204.34006279882 2450.1666082111 390380.07419249 735028795.00163
889	6982603 7824 123890 155532 534 791 258 0.973 8.801147472798 557.84046798127 1539.1089915582
888	6990427 8564 123890 155532 534 791 258 -3.7036372056734 2.3125768370973 5.3412994229886 88.395263241577
887	6998991 8008 123390 155532 533 791 259 4.1982604643229 13.999892647725 3403.3579254245 45384.214067039
886	7006999 8039 123389 155532 532 791 260 1217.8861913187 2120.6306900019 419023.96046897 696251926.68229
885	7015038 8024 123389 155532 532 791 260 204.06391825189 2450.3517415291 388280.93928202 730464394.67201
894	7023062 7830 124907 155612 537 793 257 0.973 8.0733257859087 558.4731002291 1481.6935453575
893	7030892 8558 124907 155612 537 793 257 -3.5760345561591 2.296256327224 6.1938093856635 82.39438653358
892	7039450 7972 124148 155612 536 793 258 4.0513570829791 13.999731563907 3404.7991819416 45540.128268008
891	7047422 7995 124145 155612 535 793 259 1216.6692765616 2120.7018737346 417378.98031605 693410987.94291
890	7055417 7993 124145 155612 535 793 259 203.43956760084 2450.2021382729 387425.22462901 729346479.67761
899	7063410 7778 125667 155687 540 795 256 0.973 8.9245261550387 563.34321109694 1581.6564321001
898	7071188 8497 125667 155687 540 795 256 -4.1693924920575 2.1478285888094 6.3062710773327 100.61190676392
897	7079685 7946 125666 155687 539 795 257 4.0548900131434 13.999353271045 3406.9301395615 45843.596166323
896	7087631 7979 124909 155687 538 795 258 1218.5118782725 2120.764560842 416118.35195776 691919418.27366
895	7095610 7967 124909 155687 538 795 258 202.90972758294 2450.2015707813 385713.12380918 725792942.43496
904	7103577 7739 126635 155760 543 797 255 0.973 8.4232712476451 561.30564258879 1568.6946694363
903	7111316 8471 126635 155760 543 797 255 -3.731163578921 2.2066562829795 6.4736042260743 93.650972721893
902	7119787 7909 125911 155760 542 797 256 3.8795987243486 13.999679702017 3408.3937633115 46057.638859777
901	7127696 7945 125910 155760 541 797 257 1216.4845494134 2120.6193907578 414591.24078677 689540510.12569
900	7135641 7943 125910 155760 541 797 257 201.48571359401 2450.5208672626 384253.69645829 722860109.23524
909	7143584 7762 127377 155828 546 799 254 0.973 8.5757034073973 569.3015942713 1595.1142653171
908	7151346 8448 127377 155828 546 799 254 -4.4889521684301 2.3552961666044 7.0794407674257 124.71612500673
907	7159794 7870 127376 155828 545 799 255 3.79224766453 13.998593359536 3404.7965601778 46017.964025568
906	7167664 7907 126636 155828 544 799 256 1218.2684447132 2120.9144586697 412843.55543858 686455880.33807
905	7175571 7893 126636 155828 544 799 256 201.89217433706 2450.5563058105 384963.25041755 725196351.29381
914	7183464 7684 128334 155891 549 801 253 0.973 9.0505592783722 563.38622577382 1590.8656181345
913	7191148 8414 128334 155891 549 801 253 -3.0531625778309 2.1289109298144 6.5337741394846 95.075368692883
912	7199562 7842 127619 155891 548 801 254 4.0758791711387 13.999829268262 3408.1305909414 46313.811696795
911	7207404 7880 127618 155891 547 801 255 1216.6785117565 2120.6636466719 411622.10065452 685087462.65237
910	7215284 7883 127618 155891 547 801 255 201.28785055387 2450.2817376668 383873.0723108 723334873.31474
919	7223167 7822 129058 156061 552 807 256 0.973 8.7542435498045 563.72434325286 1533.196302151
918	7230989 8484 129058 156061 552 807 256 -4.4864453163863 2.2509059163998 6.475763321494 106.63050402976
917	7239473 7946 129057 156061 551 807 257 4.1644649398516 13.999573786352 3408.9256237865 45753.205761549
916	7247419 7977 128335 156061 550 807 258 1216.4152222602 2120.7242455203 415809.01264996 690913735.0656
915	7255396 7964 128335 156061 550 807 258 201.2231378213 2450.146880227 386997.76245307 728863192.3658
924	7263360 7751 130026 156117 555 809 255 0.973 8.4671350590796 568.80692244615 1621.3554384794
923	7271111 8492 130026 156117 555 809 255 -4.4794964552872 2.3276819325448 7.0425473524809 114.49630490504
922	7279603 7911 129302 156117 554 809 256 4.0128188061465 13.999982113589 3408.9555833084 45986.498700899
921	7287514 7931 129301 156117 553 809 257 1218.01563517 2120.7548369467 414512.4907095 689308768.43197
920	7295445 7935 129301 156117 553 809 257 200.0305447015 2450.1808434416 385140.51482636 724936290.77826
929	7303380 7706 130762 156167 558 810 253 0.973 7.8583333607358 560.22724577468 1546.7819676145
928	7311086 8410 130762 156167 558 810 253 -3.2989601479672 2.3553744610399 5.4007009329365 101.40199938294
927	7319496 7852 130761 156167 557 810 254 3.7742082638246 13.999853988246 3400.3847003731 46082.807348313
926	7327348 7878 130027 156167 556 810 255 1217.1085477825 2120.7599958898 411463.67939193 684579266.86996
925	7335226 7884 130027 156167 556 810 255 204.58627903147 2450.189379495 384181.77294784 723824443.68513
934	7343110 7722 131707 156212 561 813 253 0.973 8.4636877867183 563.82682698496 1550.2932752616
933	7350832 8405 131707 156212 561 813 253 -4.0180829227873 2.2519293056824 6.2440680695101 112.53317487602
932	7359237 7846 131001 156212 560 813 254 3.9480891707148 13.997658254425 3406.2241851318 46177.371864588
931	7367083 7878 131000 156212 559 813 255 1216.9933126085 2120.7908949908 411397.95482195 684368213.25273
930	7374961 7869 131000 156212 559 813 255 202.94233879028 2450.2630356101 384185.86492787 723807235.84988
939	7382830 7853 132422 156387 564 820 257 0.973 8.0791030917393 566.40053719107 1547.8637388188
938	7390683 8553 132422 156387 564 820 257 -3.8410613171515 2.304697224847 6.897963104494 109.03719234595
937	7399236 7979 132421 156387 563 820 258 4.1511712161698 13.997202571505 3408.825593076 45600.568641523
936	7407215 8010 131708 156387 562 820 259 1217.1764973514 2120.8350050552 417240.66069213 692965182.6521
935	7415225 8000 131708 156387 562 820 259 199.96828244743 2450.3670798623 387747.36118718 730080788.42858
944	7423225 7756 133132 156388 567 821 255 0.973 8.385282928068 561.40764358348 1554.3743069913
943	7430981 8481 133132 156388 567 821 255 -3.615945999816 2.2717943449691 4.9751341844774 105.3296221977
942	7439462 7894 132658 156388 566 821 256 4.2308020922011 13.999948013073 3398.4867617693 45711.223466329
941	7447356 7937 132657 156388 565 821 257 1217.6464207582 2120.8148800898 414609.20689574 689647601.56037
940	7455293 7928 132657 156388 565 821 257 204.60618362005 2450.317847217 385758.38438161 726211478.65984
949	7463221 7748 134112 156431 570 823 254 0.973 8.0899950058051 561.68436796301 1540.3027690751
948	7470969 8458 134112 156431 570 823 254 -4.4867893059059 2.2029939318378 5.4258665129045 110.94807500761
947	7479427 7881 133865 156431 569 823 255 3.961879156699 13.999548495514 3400.534799722 45923.504391088
946	7487308 7904 133374 156431 568 823 256 1218.6348825414 2120.9100152673 412925.89172485 686725643.27722
945	7495212 7903 133374 156431 568 823 256 204.28646585043 2450.5421525908 385085.92853421 725488185.86716
954	7503115 7671 134861 156469 573 825 253 0.973 8.5845906370062 557.34437550752 1553.146264436
953	7510786 8393 134861 156469 573 825 253 -2.5957542768374 2.2295725615765 6.0026875062422 86.08389556065
952	7519179 7841 134859 156469 572 825 254 3.8235118129402 13.999171364973 3403.5229323183 46214.97049111
951	7527020 7889 134115 156469 571 825 255 1216.7907733945 2120.6184262047 411664.0547665 685236239.72306
950	7534909 7874 134115 156469 571 825 255 203.76307879086 2450.3783260528 383888.56023817 723266064.09931
959	7542783 7675 135837 156502 576 827 252 0.973 8.3162780746792 562.04625549044 1560.066013488
958	7550458 8373 135837 156502 576 827 252 -4.4895193156666 2.1202536351467 6.3516430865801 99.750123763222
957	7558831 7810 135107 156502 575 827 253 4.083114900883 13.999636709404 3407.0262636806 46454.59047314
956	7566641 7842 135106 156502 574 827 254 1217.2244824702 2120.9532118002 410030.36123784 682526468.80745
955	7574483 7827 135106 156502 574 827 254 203.15910331311 2450.6501704523 382607.4353228 720722865.53302
964	7582310 7786 136573 156575 579 832 254 0.973 7.7129369105417 566.19963061524 1553.8417198683
963	7590096 8457 136573 156575 579 832 254 -4.4977520189239 2.1686069416814 6.7993942545794 119.50825227393
962	7598553 7872 136572 156575 578 832 255 3.9423339539369 13.999779451308 3407.1573002099 46036.909664799
961	7606425 7901 135838 156575 577 832 256 1218.8479530606 2120.9534041975 412862.77254273 686525010.97045
960	7614326 7911 135838 156575 577 832 256 201.10020152887 2450.6493135284 385232.56163771 725762863.41161
969	7622237 7707 137537 156593 582 834 253 0.973 9.1790068670837 566.38095963808 1621.585815744
968	7629944 8416 137537 156593 582 834 253 -3.1579509931207 2.3518653091183 6.7733525413762 106.48521739246
967	7638360 7851 136816 156593 581 834 254 3.8806787562705 13.999372602329 3407.0574833462 46275.799220974
966	7646211 7872 136815 156593 580 834 255 1216.8844161322 2120.7194232391 411583.82624925 684947420.79545
965	7654083 7865 136815 156593 580 834 255 201.2417021374 2450.1591208632 384031.4751433 723685599.72011
974	7661948 7669 138270 156606 585 836 252 0.973 8.6522039291594 560.29381767644 1550.3462718687
973	7669617 8374 138270 156606 585 836 252 -3.7756219098434 2.3240093457396 6.1355144665895 99.302347163299
972	7677991 7802 138269 156606 584 836 253 3.8628758454064 13.996660697232 3405.4526630238 46354.615666312
971	7685793 7849 137538 156606 583 836 254 1216.3422290506 2120.6322291102 410016.19052707 682495356.07795
970	7693642 7845 137538 156606 583 836 254 202.99698606459 2450.3467237144 383360.92471528 722472838.10435

