version 2
run Default-0-20230825-20:15:34-11793
attr configname Default
attr datetime 20230825-20:15:34
attr experiment Default
attr inifile omnetpp.ini
attr iterationvars ""
attr iterationvarsf ""
attr measurement ""
attr network RSUExampleScenario
attr processid 11793
attr repetition 0
attr replication #0
attr resultdir results
attr runnumber 0
attr seedset 0
param *.playgroundSizeX 2500m
param *.playgroundSizeY 2500m
param *.playgroundSizeZ 50m
param *.annotations.draw true
param *.obstacles.obstacles "xmldoc(\"config.xml\", \"//AnalogueModel[@type='SimpleObstacleShadowing']/obstacles\")"
param *.manager.updateInterval 1s
param *.manager.host "\"localhost\""
param *.manager.port 9999
param *.manager.autoShutdown true
param *.manager.launchConfig "xmldoc(\"erlangen.launchd.xml\")"
param *.rsu[0].mobility.x 2000
param *.rsu[0].mobility.y 2000
param *.rsu[0].mobility.z 3
param *.rsu[*].applType "\"TraCIDemoRSU11p\""
param *.rsu[*].appl.headerLength "80 bit"
param *.rsu[*].appl.sendBeacons false
param *.rsu[*].appl.dataOnSch false
param *.rsu[*].appl.beaconInterval 1s
param *.rsu[*].appl.beaconUserPriority 7
param *.rsu[*].appl.dataUserPriority 5
param *.rsu[*].nic.phy80211p.antennaOffsetZ "0 m"
param *.connectionManager.sendDirect true
param *.connectionManager.maxInterfDist 2600m
param *.connectionManager.drawMaxIntfDist false
param *.**.nic.mac1609_4.useServiceChannel false
param *.**.nic.mac1609_4.txPower 20mW
param *.**.nic.mac1609_4.bitrate 6Mbps
param *.**.nic.phy80211p.minPowerLevel -110dBm
param *.**.nic.phy80211p.useNoiseFloor true
param *.**.nic.phy80211p.noiseFloor -98dBm
param *.**.nic.phy80211p.decider "xmldoc(\"config.xml\")"
param *.**.nic.phy80211p.analogueModels "xmldoc(\"config.xml\")"
param *.**.nic.phy80211p.usePropagationDelay true
param *.**.nic.phy80211p.antenna "xmldoc(\"antenna.xml\", \"/root/Antenna[@id='monopole']\")"
param *.node[*].nic.phy80211p.antennaOffsetY "0 m"
param *.node[*].nic.phy80211p.antennaOffsetZ "1.895 m"
param *.node[*].applType "\"TraCIDemo11p\""
param *.node[*].appl.headerLength "80 bit"
param *.node[*].appl.sendBeacons false
param *.node[*].appl.dataOnSch false
param *.node[*].appl.beaconInterval 1s
param *.node[*].veinsmobility.x 0
param *.node[*].veinsmobility.y 0
param *.node[*].veinsmobility.z 0
param *.node[*].veinsmobility.setHostSpeed false

scalar RSUExampleScenario.node[0].appl generatedWSMs 1
scalar RSUExampleScenario.node[0].appl receivedWSMs 1
scalar RSUExampleScenario.node[0].appl generatedBSMs 0
scalar RSUExampleScenario.node[0].appl receivedBSMs 0
scalar RSUExampleScenario.node[0].appl generatedWSAs 0
scalar RSUExampleScenario.node[0].appl receivedWSAs 0
scalar RSUExampleScenario.node[0].nic.phy80211p busyTime 7.3650793650794e-06
scalar RSUExampleScenario.node[0].nic.mac1609_4 ReceivedUnicastPackets 1
scalar RSUExampleScenario.node[0].nic.mac1609_4 ReceivedBroadcasts 0
scalar RSUExampleScenario.node[0].nic.mac1609_4 SentPackets 1
scalar RSUExampleScenario.node[0].nic.mac1609_4 SentAcknowledgements 0
scalar RSUExampleScenario.node[0].nic.mac1609_4 RetriesExceeded 0
scalar RSUExampleScenario.node[0].nic.mac1609_4 SNIRLostPackets 2
scalar RSUExampleScenario.node[0].nic.mac1609_4 RXTXLostPackets 0
scalar RSUExampleScenario.node[0].nic.mac1609_4 TotalLostPackets 2
scalar RSUExampleScenario.node[0].nic.mac1609_4 DroppedPacketsInMac 0
scalar RSUExampleScenario.node[0].nic.mac1609_4 TooLittleTime 0
scalar RSUExampleScenario.node[0].nic.mac1609_4 TimesIntoBackoff 1
scalar RSUExampleScenario.node[0].nic.mac1609_4 SlotsBackoff 0
scalar RSUExampleScenario.node[0].nic.mac1609_4 NumInternalContention 0
scalar RSUExampleScenario.node[0].nic.mac1609_4 totalBusyTime 0.002089
scalar RSUExampleScenario.node[0].nic.mac1609_4 retriesExceeded:count 0
attr source org_car2x_veins_modules_mac_sigRetriesExceeded
scalar RSUExampleScenario.node[0].nic.mac1609_4 sentAcks:count 0
attr source org_car2x_veins_modules_mac_sigSentAck
scalar RSUExampleScenario.node[0].nic.mac1609_4 sentPackets:count 1
attr source org_car2x_veins_modules_mac_sigSentPacket
scalar RSUExampleScenario.node[0].nic.mac1609_4 collisions:count 0
attr source org_car2x_veins_modules_mac_sigCollision
scalar RSUExampleScenario.node[0].nic.mac1609_4 channelBusy:timeavg 8.2896825396825e-06
attr source org_car2x_veins_modules_mac_sigChannelBusy
scalar RSUExampleScenario.node[0].veinsmobility startTime 1
scalar RSUExampleScenario.node[0].veinsmobility totalTime 251
scalar RSUExampleScenario.node[0].veinsmobility stopTime 253
scalar RSUExampleScenario.node[0].veinsmobility minSpeed 4.1061966058897
scalar RSUExampleScenario.node[0].veinsmobility maxSpeed 13.999815066161
scalar RSUExampleScenario.node[0].veinsmobility totalDistance 3398.3983560101
scalar RSUExampleScenario.node[0].veinsmobility totalCO2Emission 569.2819316364
scalar RSUExampleScenario.node[1].appl generatedWSMs 2
scalar RSUExampleScenario.node[1].appl receivedWSMs 2
scalar RSUExampleScenario.node[1].appl generatedBSMs 0
scalar RSUExampleScenario.node[1].appl receivedBSMs 0
scalar RSUExampleScenario.node[1].appl generatedWSAs 0
scalar RSUExampleScenario.node[1].appl receivedWSAs 0
scalar RSUExampleScenario.node[1].nic.phy80211p busyTime 8.2857142857143e-06
scalar RSUExampleScenario.node[1].nic.mac1609_4 ReceivedUnicastPackets 2
scalar RSUExampleScenario.node[1].nic.mac1609_4 ReceivedBroadcasts 0
scalar RSUExampleScenario.node[1].nic.mac1609_4 SentPackets 2
scalar RSUExampleScenario.node[1].nic.mac1609_4 SentAcknowledgements 0
scalar RSUExampleScenario.node[1].nic.mac1609_4 RetriesExceeded 0
scalar RSUExampleScenario.node[1].nic.mac1609_4 SNIRLostPackets 4
scalar RSUExampleScenario.node[1].nic.mac1609_4 RXTXLostPackets 0
scalar RSUExampleScenario.node[1].nic.mac1609_4 TotalLostPackets 4
scalar RSUExampleScenario.node[1].nic.mac1609_4 DroppedPacketsInMac 0
scalar RSUExampleScenario.node[1].nic.mac1609_4 TooLittleTime 0
scalar RSUExampleScenario.node[1].nic.mac1609_4 TimesIntoBackoff 2
scalar RSUExampleScenario.node[1].nic.mac1609_4 SlotsBackoff 3
scalar RSUExampleScenario.node[1].nic.mac1609_4 NumInternalContention 0
scalar RSUExampleScenario.node[1].nic.mac1609_4 totalBusyTime 0.002554
scalar RSUExampleScenario.node[1].nic.mac1609_4 retriesExceeded:count 0
attr source org_car2x_veins_modules_mac_sigRetriesExceeded
scalar RSUExampleScenario.node[1].nic.mac1609_4 sentAcks:count 0
attr source org_car2x_veins_modules_mac_sigSentAck
scalar RSUExampleScenario.node[1].nic.mac1609_4 sentPackets:count 2
attr source org_car2x_veins_modules_mac_sigSentPacket
scalar RSUExampleScenario.node[1].nic.mac1609_4 collisions:count 0
attr source org_car2x_veins_modules_mac_sigCollision
scalar RSUExampleScenario.node[1].nic.mac1609_4 channelBusy:timeavg 1.0134920634921e-05
attr source org_car2x_veins_modules_mac_sigChannelBusy
scalar RSUExampleScenario.node[1].veinsmobility startTime 4
scalar RSUExampleScenario.node[1].veinsmobility totalTime 251
scalar RSUExampleScenario.node[1].veinsmobility stopTime 256
scalar RSUExampleScenario.node[1].veinsmobility minSpeed 4.0332649588119
scalar RSUExampleScenario.node[1].veinsmobility maxSpeed 13.99953793895
scalar RSUExampleScenario.node[1].veinsmobility totalDistance 3395.2521572909
scalar RSUExampleScenario.node[1].veinsmobility totalCO2Emission 559.88617340763
scalar RSUExampleScenario.node[2].appl generatedWSMs 2
scalar RSUExampleScenario.node[2].appl receivedWSMs 2
scalar RSUExampleScenario.node[2].appl generatedBSMs 0
scalar RSUExampleScenario.node[2].appl receivedBSMs 0
scalar RSUExampleScenario.node[2].appl generatedWSAs 0
scalar RSUExampleScenario.node[2].appl receivedWSAs 0
scalar RSUExampleScenario.node[2].nic.phy80211p busyTime 8.2857142857143e-06
scalar RSUExampleScenario.node[2].nic.mac1609_4 ReceivedUnicastPackets 2
scalar RSUExampleScenario.node[2].nic.mac1609_4 ReceivedBroadcasts 0
scalar RSUExampleScenario.node[2].nic.mac1609_4 SentPackets 2
scalar RSUExampleScenario.node[2].nic.mac1609_4 SentAcknowledgements 0
scalar RSUExampleScenario.node[2].nic.mac1609_4 RetriesExceeded 0
scalar RSUExampleScenario.node[2].nic.mac1609_4 SNIRLostPackets 2
scalar RSUExampleScenario.node[2].nic.mac1609_4 RXTXLostPackets 0
scalar RSUExampleScenario.node[2].nic.mac1609_4 TotalLostPackets 2
scalar RSUExampleScenario.node[2].nic.mac1609_4 DroppedPacketsInMac 0
scalar RSUExampleScenario.node[2].nic.mac1609_4 TooLittleTime 0
scalar RSUExampleScenario.node[2].nic.mac1609_4 TimesIntoBackoff 2
scalar RSUExampleScenario.node[2].nic.mac1609_4 SlotsBackoff 1
scalar RSUExampleScenario.node[2].nic.mac1609_4 NumInternalContention 0
scalar RSUExampleScenario.node[2].nic.mac1609_4 totalBusyTime 0.002554
scalar RSUExampleScenario.node[2].nic.mac1609_4 retriesExceeded:count 0
attr source org_car2x_veins_modules_mac_sigRetriesExceeded
scalar RSUExampleScenario.node[2].nic.mac1609_4 sentAcks:count 0
attr source org_car2x_veins_modules_mac_sigSentAck
scalar RSUExampleScenario.node[2].nic.mac1609_4 sentPackets:count 2
attr source org_car2x_veins_modules_mac_sigSentPacket
scalar RSUExampleScenario.node[2].nic.mac1609_4 collisions:count 0
attr source org_car2x_veins_modules_mac_sigCollision
scalar RSUExampleScenario.node[2].nic.mac1609_4 channelBusy:timeavg 1.0134920634921e-05
attr source org_car2x_veins_modules_mac_sigChannelBusy
scalar RSUExampleScenario.node[2].veinsmobility startTime 7
scalar RSUExampleScenario.node[2].veinsmobility totalTime 251
scalar RSUExampleScenario.node[2].veinsmobility stopTime 259
scalar RSUExampleScenario.node[2].veinsmobility minSpeed 3.930963162637
scalar RSUExampleScenario.node[2].veinsmobility maxSpeed 13.999956833255
scalar RSUExampleScenario.node[2].veinsmobility totalDistance 3396.6418378074
scalar RSUExampleScenario.node[2].veinsmobility totalCO2Emission 560.47776315999
scalar RSUExampleScenario.node[3].appl generatedWSMs 2
scalar RSUExampleScenario.node[3].appl receivedWSMs 2
scalar RSUExampleScenario.node[3].appl generatedBSMs 0
scalar RSUExampleScenario.node[3].appl receivedBSMs 0
scalar RSUExampleScenario.node[3].appl generatedWSAs 0
scalar RSUExampleScenario.node[3].appl receivedWSAs 0
scalar RSUExampleScenario.node[3].nic.phy80211p busyTime 1.0126984126984e-05
scalar RSUExampleScenario.node[3].nic.mac1609_4 ReceivedUnicastPackets 2
scalar RSUExampleScenario.node[3].nic.mac1609_4 ReceivedBroadcasts 0
scalar RSUExampleScenario.node[3].nic.mac1609_4 SentPackets 2
scalar RSUExampleScenario.node[3].nic.mac1609_4 SentAcknowledgements 0
scalar RSUExampleScenario.node[3].nic.mac1609_4 RetriesExceeded 0
scalar RSUExampleScenario.node[3].nic.mac1609_4 SNIRLostPackets 2
scalar RSUExampleScenario.node[3].nic.mac1609_4 RXTXLostPackets 0
scalar RSUExampleScenario.node[3].nic.mac1609_4 TotalLostPackets 2
scalar RSUExampleScenario.node[3].nic.mac1609_4 DroppedPacketsInMac 0
scalar RSUExampleScenario.node[3].nic.mac1609_4 TooLittleTime 0
scalar RSUExampleScenario.node[3].nic.mac1609_4 TimesIntoBackoff 2
scalar RSUExampleScenario.node[3].nic.mac1609_4 SlotsBackoff 4
scalar RSUExampleScenario.node[3].nic.mac1609_4 NumInternalContention 0
scalar RSUExampleScenario.node[3].nic.mac1609_4 totalBusyTime 0.003018
scalar RSUExampleScenario.node[3].nic.mac1609_4 retriesExceeded:count 0
attr source org_car2x_veins_modules_mac_sigRetriesExceeded
scalar RSUExampleScenario.node[3].nic.mac1609_4 sentAcks:count 0
attr source org_car2x_veins_modules_mac_sigSentAck
scalar RSUExampleScenario.node[3].nic.mac1609_4 sentPackets:count 2
attr source org_car2x_veins_modules_mac_sigSentPacket
scalar RSUExampleScenario.node[3].nic.mac1609_4 collisions:count 0
attr source org_car2x_veins_modules_mac_sigCollision
scalar RSUExampleScenario.node[3].nic.mac1609_4 channelBusy:timeavg 1.197619047619e-05
attr source org_car2x_veins_modules_mac_sigChannelBusy
scalar RSUExampleScenario.node[3].veinsmobility startTime 10
scalar RSUExampleScenario.node[3].veinsmobility totalTime 251
scalar RSUExampleScenario.node[3].veinsmobility stopTime 262
scalar RSUExampleScenario.node[3].veinsmobility minSpeed 4.0076977833542
scalar RSUExampleScenario.node[3].veinsmobility maxSpeed 13.999869057706
scalar RSUExampleScenario.node[3].veinsmobility totalDistance 3396.8379006329
scalar RSUExampleScenario.node[3].veinsmobility totalCO2Emission 563.70815367544
scalar RSUExampleScenario.node[4].appl generatedWSMs 2
scalar RSUExampleScenario.node[4].appl receivedWSMs 2
scalar RSUExampleScenario.node[4].appl generatedBSMs 0
scalar RSUExampleScenario.node[4].appl receivedBSMs 0
scalar RSUExampleScenario.node[4].appl generatedWSAs 0
scalar RSUExampleScenario.node[4].appl receivedWSAs 0
scalar RSUExampleScenario.node[4].nic.phy80211p busyTime 2.6077519379845e-05
scalar RSUExampleScenario.node[4].nic.mac1609_4 ReceivedUnicastPackets 2
scalar RSUExampleScenario.node[4].nic.mac1609_4 ReceivedBroadcasts 0
scalar RSUExampleScenario.node[4].nic.mac1609_4 SentPackets 2
scalar RSUExampleScenario.node[4].nic.mac1609_4 SentAcknowledgements 0
scalar RSUExampleScenario.node[4].nic.mac1609_4 RetriesExceeded 0
scalar RSUExampleScenario.node[4].nic.mac1609_4 SNIRLostPackets 5
scalar RSUExampleScenario.node[4].nic.mac1609_4 RXTXLostPackets 0
scalar RSUExampleScenario.node[4].nic.mac1609_4 TotalLostPackets 5
scalar RSUExampleScenario.node[4].nic.mac1609_4 DroppedPacketsInMac 0
scalar RSUExampleScenario.node[4].nic.mac1609_4 TooLittleTime 0
scalar RSUExampleScenario.node[4].nic.mac1609_4 TimesIntoBackoff 2
scalar RSUExampleScenario.node[4].nic.mac1609_4 SlotsBackoff 1
scalar RSUExampleScenario.node[4].nic.mac1609_4 NumInternalContention 0
scalar RSUExampleScenario.node[4].nic.mac1609_4 totalBusyTime 0.007194
scalar RSUExampleScenario.node[4].nic.mac1609_4 retriesExceeded:count 0
attr source org_car2x_veins_modules_mac_sigRetriesExceeded
scalar RSUExampleScenario.node[4].nic.mac1609_4 sentAcks:count 0
attr source org_car2x_veins_modules_mac_sigSentAck
scalar RSUExampleScenario.node[4].nic.mac1609_4 sentPackets:count 2
attr source org_car2x_veins_modules_mac_sigSentPacket
scalar RSUExampleScenario.node[4].nic.mac1609_4 collisions:count 0
attr source org_car2x_veins_modules_mac_sigCollision
scalar RSUExampleScenario.node[4].nic.mac1609_4 channelBusy:timeavg 2.7883720930233e-05
attr source org_car2x_veins_modules_mac_sigChannelBusy
scalar RSUExampleScenario.node[4].veinsmobility startTime 13
scalar RSUExampleScenario.node[4].veinsmobility totalTime 257
scalar RSUExampleScenario.node[4].veinsmobility stopTime 271
scalar RSUExampleScenario.node[4].veinsmobility minSpeed 4.1202440707026
scalar RSUExampleScenario.node[4].veinsmobility maxSpeed 13.999806407762
scalar RSUExampleScenario.node[4].veinsmobility totalDistance 3395.027339265
scalar RSUExampleScenario.node[4].veinsmobility totalCO2Emission 562.99043882825
scalar RSUExampleScenario.node[5].appl generatedWSMs 2
scalar RSUExampleScenario.node[5].appl receivedWSMs 2
scalar RSUExampleScenario.node[5].appl generatedBSMs 0
scalar RSUExampleScenario.node[5].appl receivedBSMs 0
scalar RSUExampleScenario.node[5].appl generatedWSAs 0
scalar RSUExampleScenario.node[5].appl receivedWSAs 0
scalar RSUExampleScenario.node[5].nic.phy80211p busyTime 2.3470817120623e-05
scalar RSUExampleScenario.node[5].nic.mac1609_4 ReceivedUnicastPackets 2
scalar RSUExampleScenario.node[5].nic.mac1609_4 ReceivedBroadcasts 0
scalar RSUExampleScenario.node[5].nic.mac1609_4 SentPackets 2
scalar RSUExampleScenario.node[5].nic.mac1609_4 SentAcknowledgements 0
scalar RSUExampleScenario.node[5].nic.mac1609_4 RetriesExceeded 0
scalar RSUExampleScenario.node[5].nic.mac1609_4 SNIRLostPackets 4
scalar RSUExampleScenario.node[5].nic.mac1609_4 RXTXLostPackets 0
scalar RSUExampleScenario.node[5].nic.mac1609_4 TotalLostPackets 4
scalar RSUExampleScenario.node[5].nic.mac1609_4 DroppedPacketsInMac 0
scalar RSUExampleScenario.node[5].nic.mac1609_4 TooLittleTime 0
scalar RSUExampleScenario.node[5].nic.mac1609_4 TimesIntoBackoff 2
scalar RSUExampleScenario.node[5].nic.mac1609_4 SlotsBackoff 4
scalar RSUExampleScenario.node[5].nic.mac1609_4 NumInternalContention 0
scalar RSUExampleScenario.node[5].nic.mac1609_4 totalBusyTime 0.006498
scalar RSUExampleScenario.node[5].nic.mac1609_4 retriesExceeded:count 0
attr source org_car2x_veins_modules_mac_sigRetriesExceeded
scalar RSUExampleScenario.node[5].nic.mac1609_4 sentAcks:count 0
attr source org_car2x_veins_modules_mac_sigSentAck
scalar RSUExampleScenario.node[5].nic.mac1609_4 sentPackets:count 2
attr source org_car2x_veins_modules_mac_sigSentPacket
scalar RSUExampleScenario.node[5].nic.mac1609_4 collisions:count 0
attr source org_car2x_veins_modules_mac_sigCollision
scalar RSUExampleScenario.node[5].nic.mac1609_4 channelBusy:timeavg 2.5284046692607e-05
attr source org_car2x_veins_modules_mac_sigChannelBusy
scalar RSUExampleScenario.node[5].veinsmobility startTime 16
scalar RSUExampleScenario.node[5].veinsmobility totalTime 256
scalar RSUExampleScenario.node[5].veinsmobility stopTime 273
scalar RSUExampleScenario.node[5].veinsmobility minSpeed 4.11254450365
scalar RSUExampleScenario.node[5].veinsmobility maxSpeed 13.998108282317
scalar RSUExampleScenario.node[5].veinsmobility totalDistance 3397.8848373625
scalar RSUExampleScenario.node[5].veinsmobility totalCO2Emission 564.84977961516
scalar RSUExampleScenario.node[6].appl generatedWSMs 2
scalar RSUExampleScenario.node[6].appl receivedWSMs 2
scalar RSUExampleScenario.node[6].appl generatedBSMs 0
scalar RSUExampleScenario.node[6].appl receivedBSMs 0
scalar RSUExampleScenario.node[6].appl generatedWSAs 0
scalar RSUExampleScenario.node[6].appl receivedWSAs 0
scalar RSUExampleScenario.node[6].nic.phy80211p busyTime 2.35625e-05
scalar RSUExampleScenario.node[6].nic.mac1609_4 ReceivedUnicastPackets 2
scalar RSUExampleScenario.node[6].nic.mac1609_4 ReceivedBroadcasts 0
scalar RSUExampleScenario.node[6].nic.mac1609_4 SentPackets 2
scalar RSUExampleScenario.node[6].nic.mac1609_4 SentAcknowledgements 0
scalar RSUExampleScenario.node[6].nic.mac1609_4 RetriesExceeded 0
scalar RSUExampleScenario.node[6].nic.mac1609_4 SNIRLostPackets 6
scalar RSUExampleScenario.node[6].nic.mac1609_4 RXTXLostPackets 0
scalar RSUExampleScenario.node[6].nic.mac1609_4 TotalLostPackets 6
scalar RSUExampleScenario.node[6].nic.mac1609_4 DroppedPacketsInMac 0
scalar RSUExampleScenario.node[6].nic.mac1609_4 TooLittleTime 0
scalar RSUExampleScenario.node[6].nic.mac1609_4 TimesIntoBackoff 2
scalar RSUExampleScenario.node[6].nic.mac1609_4 SlotsBackoff 3
scalar RSUExampleScenario.node[6].nic.mac1609_4 NumInternalContention 0
scalar RSUExampleScenario.node[6].nic.mac1609_4 totalBusyTime 0.006498
scalar RSUExampleScenario.node[6].nic.mac1609_4 retriesExceeded:count 0
attr source org_car2x_veins_modules_mac_sigRetriesExceeded
scalar RSUExampleScenario.node[6].nic.mac1609_4 sentAcks:count 0
attr source org_car2x_veins_modules_mac_sigSentAck
scalar RSUExampleScenario.node[6].nic.mac1609_4 sentPackets:count 2
attr source org_car2x_veins_modules_mac_sigSentPacket
scalar RSUExampleScenario.node[6].nic.mac1609_4 collisions:count 0
attr source org_car2x_veins_modules_mac_sigCollision
scalar RSUExampleScenario.node[6].nic.mac1609_4 channelBusy:timeavg 2.53828125e-05
attr source org_car2x_veins_modules_mac_sigChannelBusy
scalar RSUExampleScenario.node[6].veinsmobility startTime 19
scalar RSUExampleScenario.node[6].veinsmobility totalTime 255
scalar RSUExampleScenario.node[6].veinsmobility stopTime 275
scalar RSUExampleScenario.node[6].veinsmobility minSpeed 4.067372106413
scalar RSUExampleScenario.node[6].veinsmobility maxSpeed 13.999156328384
scalar RSUExampleScenario.node[6].veinsmobility totalDistance 3398.908106611
scalar RSUExampleScenario.node[6].veinsmobility totalCO2Emission 567.14236002465
scalar RSUExampleScenario.node[8].appl generatedWSMs 2
scalar RSUExampleScenario.node[8].appl receivedWSMs 2
scalar RSUExampleScenario.node[8].appl generatedBSMs 0
scalar RSUExampleScenario.node[8].appl receivedBSMs 0
scalar RSUExampleScenario.node[8].appl generatedWSAs 0
scalar RSUExampleScenario.node[8].appl receivedWSAs 0
scalar RSUExampleScenario.node[8].nic.phy80211p busyTime 2.1665369649805e-05
scalar RSUExampleScenario.node[8].nic.mac1609_4 ReceivedUnicastPackets 2
scalar RSUExampleScenario.node[8].nic.mac1609_4 ReceivedBroadcasts 0
scalar RSUExampleScenario.node[8].nic.mac1609_4 SentPackets 2
scalar RSUExampleScenario.node[8].nic.mac1609_4 SentAcknowledgements 0
scalar RSUExampleScenario.node[8].nic.mac1609_4 RetriesExceeded 0
scalar RSUExampleScenario.node[8].nic.mac1609_4 SNIRLostPackets 0
scalar RSUExampleScenario.node[8].nic.mac1609_4 RXTXLostPackets 0
scalar RSUExampleScenario.node[8].nic.mac1609_4 TotalLostPackets 0
scalar RSUExampleScenario.node[8].nic.mac1609_4 DroppedPacketsInMac 0
scalar RSUExampleScenario.node[8].nic.mac1609_4 TooLittleTime 0
scalar RSUExampleScenario.node[8].nic.mac1609_4 TimesIntoBackoff 2
scalar RSUExampleScenario.node[8].nic.mac1609_4 SlotsBackoff 4
scalar RSUExampleScenario.node[8].nic.mac1609_4 NumInternalContention 0
scalar RSUExampleScenario.node[8].nic.mac1609_4 totalBusyTime 0.006034
scalar RSUExampleScenario.node[8].nic.mac1609_4 retriesExceeded:count 0
attr source org_car2x_veins_modules_mac_sigRetriesExceeded
scalar RSUExampleScenario.node[8].nic.mac1609_4 sentAcks:count 0
attr source org_car2x_veins_modules_mac_sigSentAck
scalar RSUExampleScenario.node[8].nic.mac1609_4 sentPackets:count 2
attr source org_car2x_veins_modules_mac_sigSentPacket
scalar RSUExampleScenario.node[8].nic.mac1609_4 collisions:count 0
attr source org_car2x_veins_modules_mac_sigCollision
scalar RSUExampleScenario.node[8].nic.mac1609_4 channelBusy:timeavg 2.347859922179e-05
attr source org_car2x_veins_modules_mac_sigChannelBusy
scalar RSUExampleScenario.node[8].veinsmobility startTime 25
scalar RSUExampleScenario.node[8].veinsmobility totalTime 256
scalar RSUExampleScenario.node[8].veinsmobility stopTime 282
scalar RSUExampleScenario.node[8].veinsmobility minSpeed 4.0643546214392
scalar RSUExampleScenario.node[8].veinsmobility maxSpeed 13.998192990993
scalar RSUExampleScenario.node[8].veinsmobility totalDistance 3394.0055053698
scalar RSUExampleScenario.node[8].veinsmobility totalCO2Emission 557.69248641277
scalar RSUExampleScenario.node[9].appl generatedWSMs 2
scalar RSUExampleScenario.node[9].appl receivedWSMs 2
scalar RSUExampleScenario.node[9].appl generatedBSMs 0
scalar RSUExampleScenario.node[9].appl receivedBSMs 0
scalar RSUExampleScenario.node[9].appl generatedWSAs 0
scalar RSUExampleScenario.node[9].appl receivedWSAs 0
scalar RSUExampleScenario.node[9].nic.phy80211p busyTime 4.078125e-05
scalar RSUExampleScenario.node[9].nic.mac1609_4 ReceivedUnicastPackets 2
scalar RSUExampleScenario.node[9].nic.mac1609_4 ReceivedBroadcasts 0
scalar RSUExampleScenario.node[9].nic.mac1609_4 SentPackets 2
scalar RSUExampleScenario.node[9].nic.mac1609_4 SentAcknowledgements 0
scalar RSUExampleScenario.node[9].nic.mac1609_4 RetriesExceeded 0
scalar RSUExampleScenario.node[9].nic.mac1609_4 SNIRLostPackets 9
scalar RSUExampleScenario.node[9].nic.mac1609_4 RXTXLostPackets 0
scalar RSUExampleScenario.node[9].nic.mac1609_4 TotalLostPackets 9
scalar RSUExampleScenario.node[9].nic.mac1609_4 DroppedPacketsInMac 0
scalar RSUExampleScenario.node[9].nic.mac1609_4 TooLittleTime 0
scalar RSUExampleScenario.node[9].nic.mac1609_4 TimesIntoBackoff 2
scalar RSUExampleScenario.node[9].nic.mac1609_4 SlotsBackoff 3
scalar RSUExampleScenario.node[9].nic.mac1609_4 NumInternalContention 0
scalar RSUExampleScenario.node[9].nic.mac1609_4 totalBusyTime 0.010906
scalar RSUExampleScenario.node[9].nic.mac1609_4 retriesExceeded:count 0
attr source org_car2x_veins_modules_mac_sigRetriesExceeded
scalar RSUExampleScenario.node[9].nic.mac1609_4 sentAcks:count 0
attr source org_car2x_veins_modules_mac_sigSentAck
scalar RSUExampleScenario.node[9].nic.mac1609_4 sentPackets:count 2
attr source org_car2x_veins_modules_mac_sigSentPacket
scalar RSUExampleScenario.node[9].nic.mac1609_4 collisions:count 0
attr source org_car2x_veins_modules_mac_sigCollision
scalar RSUExampleScenario.node[9].nic.mac1609_4 channelBusy:timeavg 4.26015625e-05
attr source org_car2x_veins_modules_mac_sigChannelBusy
scalar RSUExampleScenario.node[9].veinsmobility startTime 28
scalar RSUExampleScenario.node[9].veinsmobility totalTime 255
scalar RSUExampleScenario.node[9].veinsmobility stopTime 284
scalar RSUExampleScenario.node[9].veinsmobility minSpeed 3.8828872453123
scalar RSUExampleScenario.node[9].veinsmobility maxSpeed 13.999686614256
scalar RSUExampleScenario.node[9].veinsmobility totalDistance 3391.4728310013
scalar RSUExampleScenario.node[9].veinsmobility totalCO2Emission 559.71143308008
scalar RSUExampleScenario.node[7].appl generatedWSMs 2
scalar RSUExampleScenario.node[7].appl receivedWSMs 2
scalar RSUExampleScenario.node[7].appl generatedBSMs 0
scalar RSUExampleScenario.node[7].appl receivedBSMs 0
scalar RSUExampleScenario.node[7].appl generatedWSAs 0
scalar RSUExampleScenario.node[7].appl receivedWSAs 0
scalar RSUExampleScenario.node[7].nic.phy80211p busyTime 3.6144927536232e-05
scalar RSUExampleScenario.node[7].nic.mac1609_4 ReceivedUnicastPackets 2
scalar RSUExampleScenario.node[7].nic.mac1609_4 ReceivedBroadcasts 0
scalar RSUExampleScenario.node[7].nic.mac1609_4 SentPackets 2
scalar RSUExampleScenario.node[7].nic.mac1609_4 SentAcknowledgements 0
scalar RSUExampleScenario.node[7].nic.mac1609_4 RetriesExceeded 0
scalar RSUExampleScenario.node[7].nic.mac1609_4 SNIRLostPackets 9
scalar RSUExampleScenario.node[7].nic.mac1609_4 RXTXLostPackets 0
scalar RSUExampleScenario.node[7].nic.mac1609_4 TotalLostPackets 9
scalar RSUExampleScenario.node[7].nic.mac1609_4 DroppedPacketsInMac 0
scalar RSUExampleScenario.node[7].nic.mac1609_4 TooLittleTime 0
scalar RSUExampleScenario.node[7].nic.mac1609_4 TimesIntoBackoff 2
scalar RSUExampleScenario.node[7].nic.mac1609_4 SlotsBackoff 2
scalar RSUExampleScenario.node[7].nic.mac1609_4 NumInternalContention 0
scalar RSUExampleScenario.node[7].nic.mac1609_4 totalBusyTime 0.010442
scalar RSUExampleScenario.node[7].nic.mac1609_4 retriesExceeded:count 0
attr source org_car2x_veins_modules_mac_sigRetriesExceeded
scalar RSUExampleScenario.node[7].nic.mac1609_4 sentAcks:count 0
attr source org_car2x_veins_modules_mac_sigSentAck
scalar RSUExampleScenario.node[7].nic.mac1609_4 sentPackets:count 2
attr source org_car2x_veins_modules_mac_sigSentPacket
scalar RSUExampleScenario.node[7].nic.mac1609_4 collisions:count 0
attr source org_car2x_veins_modules_mac_sigCollision
scalar RSUExampleScenario.node[7].nic.mac1609_4 channelBusy:timeavg 3.7833333333333e-05
attr source org_car2x_veins_modules_mac_sigChannelBusy
scalar RSUExampleScenario.node[7].veinsmobility startTime 22
scalar RSUExampleScenario.node[7].veinsmobility totalTime 275
scalar RSUExampleScenario.node[7].veinsmobility stopTime 298
scalar RSUExampleScenario.node[7].veinsmobility minSpeed 4.0608742667126
scalar RSUExampleScenario.node[7].veinsmobility maxSpeed 13.999243474267
scalar RSUExampleScenario.node[7].veinsmobility totalDistance 3396.8340237558
scalar RSUExampleScenario.node[7].veinsmobility totalCO2Emission 570.45509986804
scalar RSUExampleScenario.node[10].appl generatedWSMs 2
scalar RSUExampleScenario.node[10].appl receivedWSMs 2
scalar RSUExampleScenario.node[10].appl generatedBSMs 0
scalar RSUExampleScenario.node[10].appl receivedBSMs 0
scalar RSUExampleScenario.node[10].appl generatedWSAs 0
scalar RSUExampleScenario.node[10].appl receivedWSAs 0
scalar RSUExampleScenario.node[10].nic.phy80211p busyTime 3.1048327137546e-05
scalar RSUExampleScenario.node[10].nic.mac1609_4 ReceivedUnicastPackets 2
scalar RSUExampleScenario.node[10].nic.mac1609_4 ReceivedBroadcasts 0
scalar RSUExampleScenario.node[10].nic.mac1609_4 SentPackets 2
scalar RSUExampleScenario.node[10].nic.mac1609_4 SentAcknowledgements 0
scalar RSUExampleScenario.node[10].nic.mac1609_4 RetriesExceeded 0
scalar RSUExampleScenario.node[10].nic.mac1609_4 SNIRLostPackets 9
scalar RSUExampleScenario.node[10].nic.mac1609_4 RXTXLostPackets 0
scalar RSUExampleScenario.node[10].nic.mac1609_4 TotalLostPackets 9
scalar RSUExampleScenario.node[10].nic.mac1609_4 DroppedPacketsInMac 0
scalar RSUExampleScenario.node[10].nic.mac1609_4 TooLittleTime 0
scalar RSUExampleScenario.node[10].nic.mac1609_4 TimesIntoBackoff 2
scalar RSUExampleScenario.node[10].nic.mac1609_4 SlotsBackoff 5
scalar RSUExampleScenario.node[10].nic.mac1609_4 NumInternalContention 0
scalar RSUExampleScenario.node[10].nic.mac1609_4 totalBusyTime 0.008818
scalar RSUExampleScenario.node[10].nic.mac1609_4 retriesExceeded:count 0
attr source org_car2x_veins_modules_mac_sigRetriesExceeded
scalar RSUExampleScenario.node[10].nic.mac1609_4 sentAcks:count 0
attr source org_car2x_veins_modules_mac_sigSentAck
scalar RSUExampleScenario.node[10].nic.mac1609_4 sentPackets:count 2
attr source org_car2x_veins_modules_mac_sigSentPacket
scalar RSUExampleScenario.node[10].nic.mac1609_4 collisions:count 0
attr source org_car2x_veins_modules_mac_sigCollision
scalar RSUExampleScenario.node[10].nic.mac1609_4 channelBusy:timeavg 3.2780669144981e-05
attr source org_car2x_veins_modules_mac_sigChannelBusy
scalar RSUExampleScenario.node[10].veinsmobility startTime 31
scalar RSUExampleScenario.node[10].veinsmobility totalTime 268
scalar RSUExampleScenario.node[10].veinsmobility stopTime 300
scalar RSUExampleScenario.node[10].veinsmobility minSpeed 4.1947202222332
scalar RSUExampleScenario.node[10].veinsmobility maxSpeed 13.999328219597
scalar RSUExampleScenario.node[10].veinsmobility totalDistance 3398.8950839719
scalar RSUExampleScenario.node[10].veinsmobility totalCO2Emission 579.58996934347
scalar RSUExampleScenario.node[11].appl generatedWSMs 2
scalar RSUExampleScenario.node[11].appl receivedWSMs 2
scalar RSUExampleScenario.node[11].appl generatedBSMs 0
scalar RSUExampleScenario.node[11].appl receivedBSMs 0
scalar RSUExampleScenario.node[11].appl generatedWSAs 0
scalar RSUExampleScenario.node[11].appl receivedWSAs 0
scalar RSUExampleScenario.node[11].nic.phy80211p busyTime 2.5970149253731e-05
scalar RSUExampleScenario.node[11].nic.mac1609_4 ReceivedUnicastPackets 2
scalar RSUExampleScenario.node[11].nic.mac1609_4 ReceivedBroadcasts 0
scalar RSUExampleScenario.node[11].nic.mac1609_4 SentPackets 2
scalar RSUExampleScenario.node[11].nic.mac1609_4 SentAcknowledgements 0
scalar RSUExampleScenario.node[11].nic.mac1609_4 RetriesExceeded 0
scalar RSUExampleScenario.node[11].nic.mac1609_4 SNIRLostPackets 5
scalar RSUExampleScenario.node[11].nic.mac1609_4 RXTXLostPackets 0
scalar RSUExampleScenario.node[11].nic.mac1609_4 TotalLostPackets 5
scalar RSUExampleScenario.node[11].nic.mac1609_4 DroppedPacketsInMac 0
scalar RSUExampleScenario.node[11].nic.mac1609_4 TooLittleTime 0
scalar RSUExampleScenario.node[11].nic.mac1609_4 TimesIntoBackoff 2
scalar RSUExampleScenario.node[11].nic.mac1609_4 SlotsBackoff 3
scalar RSUExampleScenario.node[11].nic.mac1609_4 NumInternalContention 0
scalar RSUExampleScenario.node[11].nic.mac1609_4 totalBusyTime 0.007426
scalar RSUExampleScenario.node[11].nic.mac1609_4 retriesExceeded:count 0
attr source org_car2x_veins_modules_mac_sigRetriesExceeded
scalar RSUExampleScenario.node[11].nic.mac1609_4 sentAcks:count 0
attr source org_car2x_veins_modules_mac_sigSentAck
scalar RSUExampleScenario.node[11].nic.mac1609_4 sentPackets:count 2
attr source org_car2x_veins_modules_mac_sigSentPacket
scalar RSUExampleScenario.node[11].nic.mac1609_4 collisions:count 0
attr source org_car2x_veins_modules_mac_sigCollision
scalar RSUExampleScenario.node[11].nic.mac1609_4 channelBusy:timeavg 2.7708955223881e-05
attr source org_car2x_veins_modules_mac_sigChannelBusy
scalar RSUExampleScenario.node[11].veinsmobility startTime 34
scalar RSUExampleScenario.node[11].veinsmobility totalTime 267
scalar RSUExampleScenario.node[11].veinsmobility stopTime 302
scalar RSUExampleScenario.node[11].veinsmobility minSpeed 3.8489417596173
scalar RSUExampleScenario.node[11].veinsmobility maxSpeed 13.999905188144
scalar RSUExampleScenario.node[11].veinsmobility totalDistance 3400.0127278231
scalar RSUExampleScenario.node[11].veinsmobility totalCO2Emission 568.21432309229
scalar RSUExampleScenario.node[12].appl generatedWSMs 2
scalar RSUExampleScenario.node[12].appl receivedWSMs 2
scalar RSUExampleScenario.node[12].appl generatedBSMs 0
scalar RSUExampleScenario.node[12].appl receivedBSMs 0
scalar RSUExampleScenario.node[12].appl generatedWSAs 0
scalar RSUExampleScenario.node[12].appl receivedWSAs 0
scalar RSUExampleScenario.node[12].nic.phy80211p busyTime 2.2676691729323e-05
scalar RSUExampleScenario.node[12].nic.mac1609_4 ReceivedUnicastPackets 2
scalar RSUExampleScenario.node[12].nic.mac1609_4 ReceivedBroadcasts 0
scalar RSUExampleScenario.node[12].nic.mac1609_4 SentPackets 2
scalar RSUExampleScenario.node[12].nic.mac1609_4 SentAcknowledgements 0
scalar RSUExampleScenario.node[12].nic.mac1609_4 RetriesExceeded 0
scalar RSUExampleScenario.node[12].nic.mac1609_4 SNIRLostPackets 0
scalar RSUExampleScenario.node[12].nic.mac1609_4 RXTXLostPackets 0
scalar RSUExampleScenario.node[12].nic.mac1609_4 TotalLostPackets 0
scalar RSUExampleScenario.node[12].nic.mac1609_4 DroppedPacketsInMac 0
scalar RSUExampleScenario.node[12].nic.mac1609_4 TooLittleTime 0
scalar RSUExampleScenario.node[12].nic.mac1609_4 TimesIntoBackoff 2
scalar RSUExampleScenario.node[12].nic.mac1609_4 SlotsBackoff 6
scalar RSUExampleScenario.node[12].nic.mac1609_4 NumInternalContention 0
scalar RSUExampleScenario.node[12].nic.mac1609_4 totalBusyTime 0.006498
scalar RSUExampleScenario.node[12].nic.mac1609_4 retriesExceeded:count 0
attr source org_car2x_veins_modules_mac_sigRetriesExceeded
scalar RSUExampleScenario.node[12].nic.mac1609_4 sentAcks:count 0
attr source org_car2x_veins_modules_mac_sigSentAck
scalar RSUExampleScenario.node[12].nic.mac1609_4 sentPackets:count 2
attr source org_car2x_veins_modules_mac_sigSentPacket
scalar RSUExampleScenario.node[12].nic.mac1609_4 collisions:count 0
attr source org_car2x_veins_modules_mac_sigCollision
scalar RSUExampleScenario.node[12].nic.mac1609_4 channelBusy:timeavg 2.4428571428571e-05
attr source org_car2x_veins_modules_mac_sigChannelBusy
scalar RSUExampleScenario.node[12].veinsmobility startTime 37
scalar RSUExampleScenario.node[12].veinsmobility totalTime 265
scalar RSUExampleScenario.node[12].veinsmobility stopTime 303
scalar RSUExampleScenario.node[12].veinsmobility minSpeed 3.9219617499206
scalar RSUExampleScenario.node[12].veinsmobility maxSpeed 13.999539690407
scalar RSUExampleScenario.node[12].veinsmobility totalDistance 3394.2667180122
scalar RSUExampleScenario.node[12].veinsmobility totalCO2Emission 557.99361174442
scalar RSUExampleScenario.node[13].appl generatedWSMs 2
scalar RSUExampleScenario.node[13].appl receivedWSMs 2
scalar RSUExampleScenario.node[13].appl generatedBSMs 0
scalar RSUExampleScenario.node[13].appl receivedBSMs 0
scalar RSUExampleScenario.node[13].appl generatedWSAs 0
scalar RSUExampleScenario.node[13].appl receivedWSAs 0
scalar RSUExampleScenario.node[13].nic.phy80211p busyTime 2.2762264150943e-05
scalar RSUExampleScenario.node[13].nic.mac1609_4 ReceivedUnicastPackets 2
scalar RSUExampleScenario.node[13].nic.mac1609_4 ReceivedBroadcasts 0
scalar RSUExampleScenario.node[13].nic.mac1609_4 SentPackets 2
scalar RSUExampleScenario.node[13].nic.mac1609_4 SentAcknowledgements 0
scalar RSUExampleScenario.node[13].nic.mac1609_4 RetriesExceeded 0
scalar RSUExampleScenario.node[13].nic.mac1609_4 SNIRLostPackets 6
scalar RSUExampleScenario.node[13].nic.mac1609_4 RXTXLostPackets 0
scalar RSUExampleScenario.node[13].nic.mac1609_4 TotalLostPackets 6
scalar RSUExampleScenario.node[13].nic.mac1609_4 DroppedPacketsInMac 0
scalar RSUExampleScenario.node[13].nic.mac1609_4 TooLittleTime 0
scalar RSUExampleScenario.node[13].nic.mac1609_4 TimesIntoBackoff 2
scalar RSUExampleScenario.node[13].nic.mac1609_4 SlotsBackoff 4
scalar RSUExampleScenario.node[13].nic.mac1609_4 NumInternalContention 0
scalar RSUExampleScenario.node[13].nic.mac1609_4 totalBusyTime 0.006498
scalar RSUExampleScenario.node[13].nic.mac1609_4 retriesExceeded:count 0
attr source org_car2x_veins_modules_mac_sigRetriesExceeded
scalar RSUExampleScenario.node[13].nic.mac1609_4 sentAcks:count 0
attr source org_car2x_veins_modules_mac_sigSentAck
scalar RSUExampleScenario.node[13].nic.mac1609_4 sentPackets:count 2
attr source org_car2x_veins_modules_mac_sigSentPacket
scalar RSUExampleScenario.node[13].nic.mac1609_4 collisions:count 0
attr source org_car2x_veins_modules_mac_sigCollision
scalar RSUExampleScenario.node[13].nic.mac1609_4 channelBusy:timeavg 2.4520754716981e-05
attr source org_car2x_veins_modules_mac_sigChannelBusy
scalar RSUExampleScenario.node[13].veinsmobility startTime 40
scalar RSUExampleScenario.node[13].veinsmobility totalTime 264
scalar RSUExampleScenario.node[13].veinsmobility stopTime 305
scalar RSUExampleScenario.node[13].veinsmobility minSpeed 4.0161385181755
scalar RSUExampleScenario.node[13].veinsmobility maxSpeed 13.999926172604
scalar RSUExampleScenario.node[13].veinsmobility totalDistance 3393.4962733045
scalar RSUExampleScenario.node[13].veinsmobility totalCO2Emission 561.53825937003
scalar RSUExampleScenario.node[14].appl generatedWSMs 2
scalar RSUExampleScenario.node[14].appl receivedWSMs 2
scalar RSUExampleScenario.node[14].appl generatedBSMs 0
scalar RSUExampleScenario.node[14].appl receivedBSMs 0
scalar RSUExampleScenario.node[14].appl generatedWSAs 0
scalar RSUExampleScenario.node[14].appl receivedWSAs 0
scalar RSUExampleScenario.node[14].nic.phy80211p busyTime 2.8121212121212e-05
scalar RSUExampleScenario.node[14].nic.mac1609_4 ReceivedUnicastPackets 2
scalar RSUExampleScenario.node[14].nic.mac1609_4 ReceivedBroadcasts 0
scalar RSUExampleScenario.node[14].nic.mac1609_4 SentPackets 2
scalar RSUExampleScenario.node[14].nic.mac1609_4 SentAcknowledgements 0
scalar RSUExampleScenario.node[14].nic.mac1609_4 RetriesExceeded 0
scalar RSUExampleScenario.node[14].nic.mac1609_4 SNIRLostPackets 6
scalar RSUExampleScenario.node[14].nic.mac1609_4 RXTXLostPackets 0
scalar RSUExampleScenario.node[14].nic.mac1609_4 TotalLostPackets 6
scalar RSUExampleScenario.node[14].nic.mac1609_4 DroppedPacketsInMac 0
scalar RSUExampleScenario.node[14].nic.mac1609_4 TooLittleTime 0
scalar RSUExampleScenario.node[14].nic.mac1609_4 TimesIntoBackoff 2
scalar RSUExampleScenario.node[14].nic.mac1609_4 SlotsBackoff 3
scalar RSUExampleScenario.node[14].nic.mac1609_4 NumInternalContention 0
scalar RSUExampleScenario.node[14].nic.mac1609_4 totalBusyTime 0.00789
scalar RSUExampleScenario.node[14].nic.mac1609_4 retriesExceeded:count 0
attr source org_car2x_veins_modules_mac_sigRetriesExceeded
scalar RSUExampleScenario.node[14].nic.mac1609_4 sentAcks:count 0
attr source org_car2x_veins_modules_mac_sigSentAck
scalar RSUExampleScenario.node[14].nic.mac1609_4 sentPackets:count 2
attr source org_car2x_veins_modules_mac_sigSentPacket
scalar RSUExampleScenario.node[14].nic.mac1609_4 collisions:count 0
attr source org_car2x_veins_modules_mac_sigCollision
scalar RSUExampleScenario.node[14].nic.mac1609_4 channelBusy:timeavg 2.9886363636364e-05
attr source org_car2x_veins_modules_mac_sigChannelBusy
scalar RSUExampleScenario.node[14].veinsmobility startTime 43
scalar RSUExampleScenario.node[14].veinsmobility totalTime 263
scalar RSUExampleScenario.node[14].veinsmobility stopTime 307
scalar RSUExampleScenario.node[14].veinsmobility minSpeed 3.9992962979057
scalar RSUExampleScenario.node[14].veinsmobility maxSpeed 13.999656618503
scalar RSUExampleScenario.node[14].veinsmobility totalDistance 3396.8035378191
scalar RSUExampleScenario.node[14].veinsmobility totalCO2Emission 560.93726165865
scalar RSUExampleScenario.node[15].appl generatedWSMs 2
scalar RSUExampleScenario.node[15].appl receivedWSMs 2
scalar RSUExampleScenario.node[15].appl generatedBSMs 0
scalar RSUExampleScenario.node[15].appl receivedBSMs 0
scalar RSUExampleScenario.node[15].appl generatedWSAs 0
scalar RSUExampleScenario.node[15].appl receivedWSAs 0
scalar RSUExampleScenario.node[15].nic.phy80211p busyTime 3.5285171102662e-05
scalar RSUExampleScenario.node[15].nic.mac1609_4 ReceivedUnicastPackets 2
scalar RSUExampleScenario.node[15].nic.mac1609_4 ReceivedBroadcasts 0
scalar RSUExampleScenario.node[15].nic.mac1609_4 SentPackets 2
scalar RSUExampleScenario.node[15].nic.mac1609_4 SentAcknowledgements 0
scalar RSUExampleScenario.node[15].nic.mac1609_4 RetriesExceeded 0
scalar RSUExampleScenario.node[15].nic.mac1609_4 SNIRLostPackets 6
scalar RSUExampleScenario.node[15].nic.mac1609_4 RXTXLostPackets 0
scalar RSUExampleScenario.node[15].nic.mac1609_4 TotalLostPackets 6
scalar RSUExampleScenario.node[15].nic.mac1609_4 DroppedPacketsInMac 0
scalar RSUExampleScenario.node[15].nic.mac1609_4 TooLittleTime 0
scalar RSUExampleScenario.node[15].nic.mac1609_4 TimesIntoBackoff 2
scalar RSUExampleScenario.node[15].nic.mac1609_4 SlotsBackoff 3
scalar RSUExampleScenario.node[15].nic.mac1609_4 NumInternalContention 0
scalar RSUExampleScenario.node[15].nic.mac1609_4 totalBusyTime 0.009746
scalar RSUExampleScenario.node[15].nic.mac1609_4 retriesExceeded:count 0
attr source org_car2x_veins_modules_mac_sigRetriesExceeded
scalar RSUExampleScenario.node[15].nic.mac1609_4 sentAcks:count 0
attr source org_car2x_veins_modules_mac_sigSentAck
scalar RSUExampleScenario.node[15].nic.mac1609_4 sentPackets:count 2
attr source org_car2x_veins_modules_mac_sigSentPacket
scalar RSUExampleScenario.node[15].nic.mac1609_4 collisions:count 0
attr source org_car2x_veins_modules_mac_sigCollision
scalar RSUExampleScenario.node[15].nic.mac1609_4 channelBusy:timeavg 3.7057034220532e-05
attr source org_car2x_veins_modules_mac_sigChannelBusy
scalar RSUExampleScenario.node[15].veinsmobility startTime 46
scalar RSUExampleScenario.node[15].veinsmobility totalTime 262
scalar RSUExampleScenario.node[15].veinsmobility stopTime 309
scalar RSUExampleScenario.node[15].veinsmobility minSpeed 4.1510441398274
scalar RSUExampleScenario.node[15].veinsmobility maxSpeed 13.999630704054
scalar RSUExampleScenario.node[15].veinsmobility totalDistance 3398.8383632551
scalar RSUExampleScenario.node[15].veinsmobility totalCO2Emission 563.1846923845
scalar RSUExampleScenario.node[16].appl generatedWSMs 2
scalar RSUExampleScenario.node[16].appl receivedWSMs 2
scalar RSUExampleScenario.node[16].appl generatedBSMs 0
scalar RSUExampleScenario.node[16].appl receivedBSMs 0
scalar RSUExampleScenario.node[16].appl generatedWSAs 0
scalar RSUExampleScenario.node[16].appl receivedWSAs 0
scalar RSUExampleScenario.node[16].nic.phy80211p busyTime 3.5555555555556e-05
scalar RSUExampleScenario.node[16].nic.mac1609_4 ReceivedUnicastPackets 2
scalar RSUExampleScenario.node[16].nic.mac1609_4 ReceivedBroadcasts 0
scalar RSUExampleScenario.node[16].nic.mac1609_4 SentPackets 2
scalar RSUExampleScenario.node[16].nic.mac1609_4 SentAcknowledgements 0
scalar RSUExampleScenario.node[16].nic.mac1609_4 RetriesExceeded 0
scalar RSUExampleScenario.node[16].nic.mac1609_4 SNIRLostPackets 8
scalar RSUExampleScenario.node[16].nic.mac1609_4 RXTXLostPackets 0
scalar RSUExampleScenario.node[16].nic.mac1609_4 TotalLostPackets 8
scalar RSUExampleScenario.node[16].nic.mac1609_4 DroppedPacketsInMac 0
scalar RSUExampleScenario.node[16].nic.mac1609_4 TooLittleTime 0
scalar RSUExampleScenario.node[16].nic.mac1609_4 TimesIntoBackoff 2
scalar RSUExampleScenario.node[16].nic.mac1609_4 SlotsBackoff 4
scalar RSUExampleScenario.node[16].nic.mac1609_4 NumInternalContention 0
scalar RSUExampleScenario.node[16].nic.mac1609_4 totalBusyTime 0.009746
scalar RSUExampleScenario.node[16].nic.mac1609_4 retriesExceeded:count 0
attr source org_car2x_veins_modules_mac_sigRetriesExceeded
scalar RSUExampleScenario.node[16].nic.mac1609_4 sentAcks:count 0
attr source org_car2x_veins_modules_mac_sigSentAck
scalar RSUExampleScenario.node[16].nic.mac1609_4 sentPackets:count 2
attr source org_car2x_veins_modules_mac_sigSentPacket
scalar RSUExampleScenario.node[16].nic.mac1609_4 collisions:count 0
attr source org_car2x_veins_modules_mac_sigCollision
scalar RSUExampleScenario.node[16].nic.mac1609_4 channelBusy:timeavg 3.7340996168582e-05
attr source org_car2x_veins_modules_mac_sigChannelBusy
scalar RSUExampleScenario.node[16].veinsmobility startTime 49
scalar RSUExampleScenario.node[16].veinsmobility totalTime 260
scalar RSUExampleScenario.node[16].veinsmobility stopTime 310
scalar RSUExampleScenario.node[16].veinsmobility minSpeed 3.8447853377257
scalar RSUExampleScenario.node[16].veinsmobility maxSpeed 13.999218537293
scalar RSUExampleScenario.node[16].veinsmobility totalDistance 3393.7498250707
scalar RSUExampleScenario.node[16].veinsmobility totalCO2Emission 557.57236141199
scalar RSUExampleScenario.node[18].appl generatedWSMs 2
scalar RSUExampleScenario.node[18].appl receivedWSMs 2
scalar RSUExampleScenario.node[18].appl generatedBSMs 0
scalar RSUExampleScenario.node[18].appl receivedBSMs 0
scalar RSUExampleScenario.node[18].appl generatedWSAs 0
scalar RSUExampleScenario.node[18].appl receivedWSAs 0
scalar RSUExampleScenario.node[18].nic.phy80211p busyTime 5.8892307692308e-05
scalar RSUExampleScenario.node[18].nic.mac1609_4 ReceivedUnicastPackets 2
scalar RSUExampleScenario.node[18].nic.mac1609_4 ReceivedBroadcasts 0
scalar RSUExampleScenario.node[18].nic.mac1609_4 SentPackets 2
scalar RSUExampleScenario.node[18].nic.mac1609_4 SentAcknowledgements 0
scalar RSUExampleScenario.node[18].nic.mac1609_4 RetriesExceeded 0
scalar RSUExampleScenario.node[18].nic.mac1609_4 SNIRLostPackets 19
scalar RSUExampleScenario.node[18].nic.mac1609_4 RXTXLostPackets 0
scalar RSUExampleScenario.node[18].nic.mac1609_4 TotalLostPackets 19
scalar RSUExampleScenario.node[18].nic.mac1609_4 DroppedPacketsInMac 0
scalar RSUExampleScenario.node[18].nic.mac1609_4 TooLittleTime 0
scalar RSUExampleScenario.node[18].nic.mac1609_4 TimesIntoBackoff 2
scalar RSUExampleScenario.node[18].nic.mac1609_4 SlotsBackoff 1
scalar RSUExampleScenario.node[18].nic.mac1609_4 NumInternalContention 0
scalar RSUExampleScenario.node[18].nic.mac1609_4 totalBusyTime 0.015778
scalar RSUExampleScenario.node[18].nic.mac1609_4 retriesExceeded:count 0
attr source org_car2x_veins_modules_mac_sigRetriesExceeded
scalar RSUExampleScenario.node[18].nic.mac1609_4 sentAcks:count 0
attr source org_car2x_veins_modules_mac_sigSentAck
scalar RSUExampleScenario.node[18].nic.mac1609_4 sentPackets:count 2
attr source org_car2x_veins_modules_mac_sigSentPacket
scalar RSUExampleScenario.node[18].nic.mac1609_4 collisions:count 0
attr source org_car2x_veins_modules_mac_sigCollision
scalar RSUExampleScenario.node[18].nic.mac1609_4 channelBusy:timeavg 6.0684615384615e-05
attr source org_car2x_veins_modules_mac_sigChannelBusy
scalar RSUExampleScenario.node[18].veinsmobility startTime 55
scalar RSUExampleScenario.node[18].veinsmobility totalTime 259
scalar RSUExampleScenario.node[18].veinsmobility stopTime 315
scalar RSUExampleScenario.node[18].veinsmobility minSpeed 4.0700236807532
scalar RSUExampleScenario.node[18].veinsmobility maxSpeed 13.999699370395
scalar RSUExampleScenario.node[18].veinsmobility totalDistance 3397.7904604537
scalar RSUExampleScenario.node[18].veinsmobility totalCO2Emission 561.53130686382
scalar RSUExampleScenario.node[19].appl generatedWSMs 2
scalar RSUExampleScenario.node[19].appl receivedWSMs 2
scalar RSUExampleScenario.node[19].appl generatedBSMs 0
scalar RSUExampleScenario.node[19].appl receivedBSMs 0
scalar RSUExampleScenario.node[19].appl generatedWSAs 0
scalar RSUExampleScenario.node[19].appl receivedWSAs 0
scalar RSUExampleScenario.node[19].nic.phy80211p busyTime 5.1555555555555e-05
scalar RSUExampleScenario.node[19].nic.mac1609_4 ReceivedUnicastPackets 2
scalar RSUExampleScenario.node[19].nic.mac1609_4 ReceivedBroadcasts 0
scalar RSUExampleScenario.node[19].nic.mac1609_4 SentPackets 2
scalar RSUExampleScenario.node[19].nic.mac1609_4 SentAcknowledgements 0
scalar RSUExampleScenario.node[19].nic.mac1609_4 RetriesExceeded 0
scalar RSUExampleScenario.node[19].nic.mac1609_4 SNIRLostPackets 15
scalar RSUExampleScenario.node[19].nic.mac1609_4 RXTXLostPackets 0
scalar RSUExampleScenario.node[19].nic.mac1609_4 TotalLostPackets 15
scalar RSUExampleScenario.node[19].nic.mac1609_4 DroppedPacketsInMac 0
scalar RSUExampleScenario.node[19].nic.mac1609_4 TooLittleTime 0
scalar RSUExampleScenario.node[19].nic.mac1609_4 TimesIntoBackoff 2
scalar RSUExampleScenario.node[19].nic.mac1609_4 SlotsBackoff 4
scalar RSUExampleScenario.node[19].nic.mac1609_4 NumInternalContention 0
scalar RSUExampleScenario.node[19].nic.mac1609_4 totalBusyTime 0.013922
scalar RSUExampleScenario.node[19].nic.mac1609_4 retriesExceeded:count 0
attr source org_car2x_veins_modules_mac_sigRetriesExceeded
scalar RSUExampleScenario.node[19].nic.mac1609_4 sentAcks:count 0
attr source org_car2x_veins_modules_mac_sigSentAck
scalar RSUExampleScenario.node[19].nic.mac1609_4 sentPackets:count 2
attr source org_car2x_veins_modules_mac_sigSentPacket
scalar RSUExampleScenario.node[19].nic.mac1609_4 collisions:count 0
attr source org_car2x_veins_modules_mac_sigCollision
scalar RSUExampleScenario.node[19].nic.mac1609_4 channelBusy:timeavg 5.3340996168582e-05
attr source org_car2x_veins_modules_mac_sigChannelBusy
scalar RSUExampleScenario.node[19].veinsmobility startTime 58
scalar RSUExampleScenario.node[19].veinsmobility totalTime 260
scalar RSUExampleScenario.node[19].veinsmobility stopTime 319
scalar RSUExampleScenario.node[19].veinsmobility minSpeed 3.8447639940612
scalar RSUExampleScenario.node[19].veinsmobility maxSpeed 13.999608246239
scalar RSUExampleScenario.node[19].veinsmobility totalDistance 3393.5276404877
scalar RSUExampleScenario.node[19].veinsmobility totalCO2Emission 558.8717261656
scalar RSUExampleScenario.node[20].appl generatedWSMs 2
scalar RSUExampleScenario.node[20].appl receivedWSMs 2
scalar RSUExampleScenario.node[20].appl generatedBSMs 0
scalar RSUExampleScenario.node[20].appl receivedBSMs 0
scalar RSUExampleScenario.node[20].appl generatedWSAs 0
scalar RSUExampleScenario.node[20].appl receivedWSAs 0
scalar RSUExampleScenario.node[20].nic.phy80211p busyTime 5.1753846153846e-05
scalar RSUExampleScenario.node[20].nic.mac1609_4 ReceivedUnicastPackets 2
scalar RSUExampleScenario.node[20].nic.mac1609_4 ReceivedBroadcasts 0
scalar RSUExampleScenario.node[20].nic.mac1609_4 SentPackets 2
scalar RSUExampleScenario.node[20].nic.mac1609_4 SentAcknowledgements 0
scalar RSUExampleScenario.node[20].nic.mac1609_4 RetriesExceeded 0
scalar RSUExampleScenario.node[20].nic.mac1609_4 SNIRLostPackets 18
scalar RSUExampleScenario.node[20].nic.mac1609_4 RXTXLostPackets 0
scalar RSUExampleScenario.node[20].nic.mac1609_4 TotalLostPackets 18
scalar RSUExampleScenario.node[20].nic.mac1609_4 DroppedPacketsInMac 0
scalar RSUExampleScenario.node[20].nic.mac1609_4 TooLittleTime 0
scalar RSUExampleScenario.node[20].nic.mac1609_4 TimesIntoBackoff 2
scalar RSUExampleScenario.node[20].nic.mac1609_4 SlotsBackoff 3
scalar RSUExampleScenario.node[20].nic.mac1609_4 NumInternalContention 0
scalar RSUExampleScenario.node[20].nic.mac1609_4 totalBusyTime 0.013922
scalar RSUExampleScenario.node[20].nic.mac1609_4 retriesExceeded:count 0
attr source org_car2x_veins_modules_mac_sigRetriesExceeded
scalar RSUExampleScenario.node[20].nic.mac1609_4 sentAcks:count 0
attr source org_car2x_veins_modules_mac_sigSentAck
scalar RSUExampleScenario.node[20].nic.mac1609_4 sentPackets:count 2
attr source org_car2x_veins_modules_mac_sigSentPacket
scalar RSUExampleScenario.node[20].nic.mac1609_4 collisions:count 0
attr source org_car2x_veins_modules_mac_sigCollision
scalar RSUExampleScenario.node[20].nic.mac1609_4 channelBusy:timeavg 5.3546153846154e-05
attr source org_car2x_veins_modules_mac_sigChannelBusy
scalar RSUExampleScenario.node[20].veinsmobility startTime 61
scalar RSUExampleScenario.node[20].veinsmobility totalTime 259
scalar RSUExampleScenario.node[20].veinsmobility stopTime 321
scalar RSUExampleScenario.node[20].veinsmobility minSpeed 4.018615917157
scalar RSUExampleScenario.node[20].veinsmobility maxSpeed 13.999763481072
scalar RSUExampleScenario.node[20].veinsmobility totalDistance 3393.0448024212
scalar RSUExampleScenario.node[20].veinsmobility totalCO2Emission 561.29501494339
scalar RSUExampleScenario.node[21].appl generatedWSMs 2
scalar RSUExampleScenario.node[21].appl receivedWSMs 2
scalar RSUExampleScenario.node[21].appl generatedBSMs 0
scalar RSUExampleScenario.node[21].appl receivedBSMs 0
scalar RSUExampleScenario.node[21].appl generatedWSAs 0
scalar RSUExampleScenario.node[21].appl receivedWSAs 0
scalar RSUExampleScenario.node[21].nic.phy80211p busyTime 4.9777777777778e-05
scalar RSUExampleScenario.node[21].nic.mac1609_4 ReceivedUnicastPackets 2
scalar RSUExampleScenario.node[21].nic.mac1609_4 ReceivedBroadcasts 0
scalar RSUExampleScenario.node[21].nic.mac1609_4 SentPackets 2
scalar RSUExampleScenario.node[21].nic.mac1609_4 SentAcknowledgements 0
scalar RSUExampleScenario.node[21].nic.mac1609_4 RetriesExceeded 0
scalar RSUExampleScenario.node[21].nic.mac1609_4 SNIRLostPackets 14
scalar RSUExampleScenario.node[21].nic.mac1609_4 RXTXLostPackets 0
scalar RSUExampleScenario.node[21].nic.mac1609_4 TotalLostPackets 14
scalar RSUExampleScenario.node[21].nic.mac1609_4 DroppedPacketsInMac 0
scalar RSUExampleScenario.node[21].nic.mac1609_4 TooLittleTime 0
scalar RSUExampleScenario.node[21].nic.mac1609_4 TimesIntoBackoff 2
scalar RSUExampleScenario.node[21].nic.mac1609_4 SlotsBackoff 2
scalar RSUExampleScenario.node[21].nic.mac1609_4 NumInternalContention 0
scalar RSUExampleScenario.node[21].nic.mac1609_4 totalBusyTime 0.013458
scalar RSUExampleScenario.node[21].nic.mac1609_4 retriesExceeded:count 0
attr source org_car2x_veins_modules_mac_sigRetriesExceeded
scalar RSUExampleScenario.node[21].nic.mac1609_4 sentAcks:count 0
attr source org_car2x_veins_modules_mac_sigSentAck
scalar RSUExampleScenario.node[21].nic.mac1609_4 sentPackets:count 2
attr source org_car2x_veins_modules_mac_sigSentPacket
scalar RSUExampleScenario.node[21].nic.mac1609_4 collisions:count 0
attr source org_car2x_veins_modules_mac_sigCollision
scalar RSUExampleScenario.node[21].nic.mac1609_4 channelBusy:timeavg 5.1563218390805e-05
attr source org_car2x_veins_modules_mac_sigChannelBusy
scalar RSUExampleScenario.node[21].veinsmobility startTime 64
scalar RSUExampleScenario.node[21].veinsmobility totalTime 260
scalar RSUExampleScenario.node[21].veinsmobility stopTime 325
scalar RSUExampleScenario.node[21].veinsmobility minSpeed 4.2842987557744
scalar RSUExampleScenario.node[21].veinsmobility maxSpeed 13.999963147973
scalar RSUExampleScenario.node[21].veinsmobility totalDistance 3395.0013573149
scalar RSUExampleScenario.node[21].veinsmobility totalCO2Emission 562.05018240333
scalar RSUExampleScenario.node[17].appl generatedWSMs 2
scalar RSUExampleScenario.node[17].appl receivedWSMs 2
scalar RSUExampleScenario.node[17].appl generatedBSMs 0
scalar RSUExampleScenario.node[17].appl receivedBSMs 0
scalar RSUExampleScenario.node[17].appl generatedWSAs 0
scalar RSUExampleScenario.node[17].appl receivedWSAs 0
scalar RSUExampleScenario.node[17].nic.phy80211p busyTime 4.5426573426573e-05
scalar RSUExampleScenario.node[17].nic.mac1609_4 ReceivedUnicastPackets 2
scalar RSUExampleScenario.node[17].nic.mac1609_4 ReceivedBroadcasts 0
scalar RSUExampleScenario.node[17].nic.mac1609_4 SentPackets 2
scalar RSUExampleScenario.node[17].nic.mac1609_4 SentAcknowledgements 0
scalar RSUExampleScenario.node[17].nic.mac1609_4 RetriesExceeded 0
scalar RSUExampleScenario.node[17].nic.mac1609_4 SNIRLostPackets 14
scalar RSUExampleScenario.node[17].nic.mac1609_4 RXTXLostPackets 0
scalar RSUExampleScenario.node[17].nic.mac1609_4 TotalLostPackets 14
scalar RSUExampleScenario.node[17].nic.mac1609_4 DroppedPacketsInMac 0
scalar RSUExampleScenario.node[17].nic.mac1609_4 TooLittleTime 0
scalar RSUExampleScenario.node[17].nic.mac1609_4 TimesIntoBackoff 2
scalar RSUExampleScenario.node[17].nic.mac1609_4 SlotsBackoff 0
scalar RSUExampleScenario.node[17].nic.mac1609_4 NumInternalContention 0
scalar RSUExampleScenario.node[17].nic.mac1609_4 totalBusyTime 0.013458
scalar RSUExampleScenario.node[17].nic.mac1609_4 retriesExceeded:count 0
attr source org_car2x_veins_modules_mac_sigRetriesExceeded
scalar RSUExampleScenario.node[17].nic.mac1609_4 sentAcks:count 0
attr source org_car2x_veins_modules_mac_sigSentAck
scalar RSUExampleScenario.node[17].nic.mac1609_4 sentPackets:count 2
attr source org_car2x_veins_modules_mac_sigSentPacket
scalar RSUExampleScenario.node[17].nic.mac1609_4 collisions:count 0
attr source org_car2x_veins_modules_mac_sigCollision
scalar RSUExampleScenario.node[17].nic.mac1609_4 channelBusy:timeavg 4.7055944055944e-05
attr source org_car2x_veins_modules_mac_sigChannelBusy
scalar RSUExampleScenario.node[17].veinsmobility startTime 52
scalar RSUExampleScenario.node[17].veinsmobility totalTime 285
scalar RSUExampleScenario.node[17].veinsmobility stopTime 338
scalar RSUExampleScenario.node[17].veinsmobility minSpeed 3.8698786158062
scalar RSUExampleScenario.node[17].veinsmobility maxSpeed 13.999116995411
scalar RSUExampleScenario.node[17].veinsmobility totalDistance 3398.6802336388
scalar RSUExampleScenario.node[17].veinsmobility totalCO2Emission 579.20010421454
scalar RSUExampleScenario.node[22].appl generatedWSMs 2
scalar RSUExampleScenario.node[22].appl receivedWSMs 2
scalar RSUExampleScenario.node[22].appl generatedBSMs 0
scalar RSUExampleScenario.node[22].appl receivedBSMs 0
scalar RSUExampleScenario.node[22].appl generatedWSAs 0
scalar RSUExampleScenario.node[22].appl receivedWSAs 0
scalar RSUExampleScenario.node[22].nic.phy80211p busyTime 4.9289377289377e-05
scalar RSUExampleScenario.node[22].nic.mac1609_4 ReceivedUnicastPackets 2
scalar RSUExampleScenario.node[22].nic.mac1609_4 ReceivedBroadcasts 0
scalar RSUExampleScenario.node[22].nic.mac1609_4 SentPackets 2
scalar RSUExampleScenario.node[22].nic.mac1609_4 SentAcknowledgements 0
scalar RSUExampleScenario.node[22].nic.mac1609_4 RetriesExceeded 0
scalar RSUExampleScenario.node[22].nic.mac1609_4 SNIRLostPackets 17
scalar RSUExampleScenario.node[22].nic.mac1609_4 RXTXLostPackets 0
scalar RSUExampleScenario.node[22].nic.mac1609_4 TotalLostPackets 17
scalar RSUExampleScenario.node[22].nic.mac1609_4 DroppedPacketsInMac 0
scalar RSUExampleScenario.node[22].nic.mac1609_4 TooLittleTime 0
scalar RSUExampleScenario.node[22].nic.mac1609_4 TimesIntoBackoff 2
scalar RSUExampleScenario.node[22].nic.mac1609_4 SlotsBackoff 0
scalar RSUExampleScenario.node[22].nic.mac1609_4 NumInternalContention 0
scalar RSUExampleScenario.node[22].nic.mac1609_4 totalBusyTime 0.013922
scalar RSUExampleScenario.node[22].nic.mac1609_4 retriesExceeded:count 0
attr source org_car2x_veins_modules_mac_sigRetriesExceeded
scalar RSUExampleScenario.node[22].nic.mac1609_4 sentAcks:count 0
attr source org_car2x_veins_modules_mac_sigSentAck
scalar RSUExampleScenario.node[22].nic.mac1609_4 sentPackets:count 2
attr source org_car2x_veins_modules_mac_sigSentPacket
scalar RSUExampleScenario.node[22].nic.mac1609_4 collisions:count 0
attr source org_car2x_veins_modules_mac_sigCollision
scalar RSUExampleScenario.node[22].nic.mac1609_4 channelBusy:timeavg 5.0996336996337e-05
attr source org_car2x_veins_modules_mac_sigChannelBusy
scalar RSUExampleScenario.node[22].veinsmobility startTime 67
scalar RSUExampleScenario.node[22].veinsmobility totalTime 272
scalar RSUExampleScenario.node[22].veinsmobility stopTime 340
scalar RSUExampleScenario.node[22].veinsmobility minSpeed 4.1832233416825
scalar RSUExampleScenario.node[22].veinsmobility maxSpeed 13.997139654839
scalar RSUExampleScenario.node[22].veinsmobility totalDistance 3399.6080125327
scalar RSUExampleScenario.node[22].veinsmobility totalCO2Emission 576.87056282304
scalar RSUExampleScenario.node[24].appl generatedWSMs 2
scalar RSUExampleScenario.node[24].appl receivedWSMs 2
scalar RSUExampleScenario.node[24].appl generatedBSMs 0
scalar RSUExampleScenario.node[24].appl receivedBSMs 0
scalar RSUExampleScenario.node[24].appl generatedWSAs 0
scalar RSUExampleScenario.node[24].appl receivedWSAs 0
scalar RSUExampleScenario.node[24].nic.phy80211p busyTime 5.8646840148699e-05
scalar RSUExampleScenario.node[24].nic.mac1609_4 ReceivedUnicastPackets 2
scalar RSUExampleScenario.node[24].nic.mac1609_4 ReceivedBroadcasts 0
scalar RSUExampleScenario.node[24].nic.mac1609_4 SentPackets 2
scalar RSUExampleScenario.node[24].nic.mac1609_4 SentAcknowledgements 0
scalar RSUExampleScenario.node[24].nic.mac1609_4 RetriesExceeded 0
scalar RSUExampleScenario.node[24].nic.mac1609_4 SNIRLostPackets 25
scalar RSUExampleScenario.node[24].nic.mac1609_4 RXTXLostPackets 0
scalar RSUExampleScenario.node[24].nic.mac1609_4 TotalLostPackets 25
scalar RSUExampleScenario.node[24].nic.mac1609_4 DroppedPacketsInMac 0
scalar RSUExampleScenario.node[24].nic.mac1609_4 TooLittleTime 0
scalar RSUExampleScenario.node[24].nic.mac1609_4 TimesIntoBackoff 2
scalar RSUExampleScenario.node[24].nic.mac1609_4 SlotsBackoff 2
scalar RSUExampleScenario.node[24].nic.mac1609_4 NumInternalContention 0
scalar RSUExampleScenario.node[24].nic.mac1609_4 totalBusyTime 0.016242
scalar RSUExampleScenario.node[24].nic.mac1609_4 retriesExceeded:count 0
attr source org_car2x_veins_modules_mac_sigRetriesExceeded
scalar RSUExampleScenario.node[24].nic.mac1609_4 sentAcks:count 0
attr source org_car2x_veins_modules_mac_sigSentAck
scalar RSUExampleScenario.node[24].nic.mac1609_4 sentPackets:count 2
attr source org_car2x_veins_modules_mac_sigSentPacket
scalar RSUExampleScenario.node[24].nic.mac1609_4 collisions:count 0
attr source org_car2x_veins_modules_mac_sigCollision
scalar RSUExampleScenario.node[24].nic.mac1609_4 channelBusy:timeavg 6.0379182156134e-05
attr source org_car2x_veins_modules_mac_sigChannelBusy
scalar RSUExampleScenario.node[24].veinsmobility startTime 73
scalar RSUExampleScenario.node[24].veinsmobility totalTime 268
scalar RSUExampleScenario.node[24].veinsmobility stopTime 342
scalar RSUExampleScenario.node[24].veinsmobility minSpeed 4.0735588402093
scalar RSUExampleScenario.node[24].veinsmobility maxSpeed 13.999299916551
scalar RSUExampleScenario.node[24].veinsmobility totalDistance 3400.3704726893
scalar RSUExampleScenario.node[24].veinsmobility totalCO2Emission 564.33974989348
scalar RSUExampleScenario.node[25].appl generatedWSMs 2
scalar RSUExampleScenario.node[25].appl receivedWSMs 2
scalar RSUExampleScenario.node[25].appl generatedBSMs 0
scalar RSUExampleScenario.node[25].appl receivedBSMs 0
scalar RSUExampleScenario.node[25].appl generatedWSAs 0
scalar RSUExampleScenario.node[25].appl receivedWSAs 0
scalar RSUExampleScenario.node[25].nic.phy80211p busyTime 5.9955056179775e-05
scalar RSUExampleScenario.node[25].nic.mac1609_4 ReceivedUnicastPackets 2
scalar RSUExampleScenario.node[25].nic.mac1609_4 ReceivedBroadcasts 0
scalar RSUExampleScenario.node[25].nic.mac1609_4 SentPackets 2
scalar RSUExampleScenario.node[25].nic.mac1609_4 SentAcknowledgements 0
scalar RSUExampleScenario.node[25].nic.mac1609_4 RetriesExceeded 0
scalar RSUExampleScenario.node[25].nic.mac1609_4 SNIRLostPackets 25
scalar RSUExampleScenario.node[25].nic.mac1609_4 RXTXLostPackets 0
scalar RSUExampleScenario.node[25].nic.mac1609_4 TotalLostPackets 25
scalar RSUExampleScenario.node[25].nic.mac1609_4 DroppedPacketsInMac 0
scalar RSUExampleScenario.node[25].nic.mac1609_4 TooLittleTime 0
scalar RSUExampleScenario.node[25].nic.mac1609_4 TimesIntoBackoff 2
scalar RSUExampleScenario.node[25].nic.mac1609_4 SlotsBackoff 3
scalar RSUExampleScenario.node[25].nic.mac1609_4 NumInternalContention 0
scalar RSUExampleScenario.node[25].nic.mac1609_4 totalBusyTime 0.016474
scalar RSUExampleScenario.node[25].nic.mac1609_4 retriesExceeded:count 0
attr source org_car2x_veins_modules_mac_sigRetriesExceeded
scalar RSUExampleScenario.node[25].nic.mac1609_4 sentAcks:count 0
attr source org_car2x_veins_modules_mac_sigSentAck
scalar RSUExampleScenario.node[25].nic.mac1609_4 sentPackets:count 2
attr source org_car2x_veins_modules_mac_sigSentPacket
scalar RSUExampleScenario.node[25].nic.mac1609_4 collisions:count 0
attr source org_car2x_veins_modules_mac_sigCollision
scalar RSUExampleScenario.node[25].nic.mac1609_4 channelBusy:timeavg 6.1700374531835e-05
attr source org_car2x_veins_modules_mac_sigChannelBusy
scalar RSUExampleScenario.node[25].veinsmobility startTime 76
scalar RSUExampleScenario.node[25].veinsmobility totalTime 266
scalar RSUExampleScenario.node[25].veinsmobility stopTime 343
scalar RSUExampleScenario.node[25].veinsmobility minSpeed 4.0635240824116
scalar RSUExampleScenario.node[25].veinsmobility maxSpeed 13.999252574216
scalar RSUExampleScenario.node[25].veinsmobility totalDistance 3394.2953144823
scalar RSUExampleScenario.node[25].veinsmobility totalCO2Emission 559.21549662126
scalar RSUExampleScenario.node[26].appl generatedWSMs 2
scalar RSUExampleScenario.node[26].appl receivedWSMs 2
scalar RSUExampleScenario.node[26].appl generatedBSMs 0
scalar RSUExampleScenario.node[26].appl receivedBSMs 0
scalar RSUExampleScenario.node[26].appl generatedWSAs 0
scalar RSUExampleScenario.node[26].appl receivedWSAs 0
scalar RSUExampleScenario.node[26].nic.phy80211p busyTime 5.581954887218e-05
scalar RSUExampleScenario.node[26].nic.mac1609_4 ReceivedUnicastPackets 2
scalar RSUExampleScenario.node[26].nic.mac1609_4 ReceivedBroadcasts 0
scalar RSUExampleScenario.node[26].nic.mac1609_4 SentPackets 2
scalar RSUExampleScenario.node[26].nic.mac1609_4 SentAcknowledgements 0
scalar RSUExampleScenario.node[26].nic.mac1609_4 RetriesExceeded 0
scalar RSUExampleScenario.node[26].nic.mac1609_4 SNIRLostPackets 21
scalar RSUExampleScenario.node[26].nic.mac1609_4 RXTXLostPackets 0
scalar RSUExampleScenario.node[26].nic.mac1609_4 TotalLostPackets 21
scalar RSUExampleScenario.node[26].nic.mac1609_4 DroppedPacketsInMac 0
scalar RSUExampleScenario.node[26].nic.mac1609_4 TooLittleTime 0
scalar RSUExampleScenario.node[26].nic.mac1609_4 TimesIntoBackoff 2
scalar RSUExampleScenario.node[26].nic.mac1609_4 SlotsBackoff 4
scalar RSUExampleScenario.node[26].nic.mac1609_4 NumInternalContention 0
scalar RSUExampleScenario.node[26].nic.mac1609_4 totalBusyTime 0.015314
scalar RSUExampleScenario.node[26].nic.mac1609_4 retriesExceeded:count 0
attr source org_car2x_veins_modules_mac_sigRetriesExceeded
scalar RSUExampleScenario.node[26].nic.mac1609_4 sentAcks:count 0
attr source org_car2x_veins_modules_mac_sigSentAck
scalar RSUExampleScenario.node[26].nic.mac1609_4 sentPackets:count 2
attr source org_car2x_veins_modules_mac_sigSentPacket
scalar RSUExampleScenario.node[26].nic.mac1609_4 collisions:count 0
attr source org_car2x_veins_modules_mac_sigCollision
scalar RSUExampleScenario.node[26].nic.mac1609_4 channelBusy:timeavg 5.7571428571428e-05
attr source org_car2x_veins_modules_mac_sigChannelBusy
scalar RSUExampleScenario.node[26].veinsmobility startTime 79
scalar RSUExampleScenario.node[26].veinsmobility totalTime 265
scalar RSUExampleScenario.node[26].veinsmobility stopTime 345
scalar RSUExampleScenario.node[26].veinsmobility minSpeed 4.0267229073465
scalar RSUExampleScenario.node[26].veinsmobility maxSpeed 13.999621272914
scalar RSUExampleScenario.node[26].veinsmobility totalDistance 3397.3567760024
scalar RSUExampleScenario.node[26].veinsmobility totalCO2Emission 558.50902824874
scalar RSUExampleScenario.node[23].appl generatedWSMs 2
scalar RSUExampleScenario.node[23].appl receivedWSMs 2
scalar RSUExampleScenario.node[23].appl generatedBSMs 0
scalar RSUExampleScenario.node[23].appl receivedBSMs 0
scalar RSUExampleScenario.node[23].appl generatedWSAs 0
scalar RSUExampleScenario.node[23].appl receivedWSAs 0
scalar RSUExampleScenario.node[23].nic.phy80211p busyTime 5.6342857142857e-05
scalar RSUExampleScenario.node[23].nic.mac1609_4 ReceivedUnicastPackets 2
scalar RSUExampleScenario.node[23].nic.mac1609_4 ReceivedBroadcasts 0
scalar RSUExampleScenario.node[23].nic.mac1609_4 SentPackets 2
scalar RSUExampleScenario.node[23].nic.mac1609_4 SentAcknowledgements 0
scalar RSUExampleScenario.node[23].nic.mac1609_4 RetriesExceeded 0
scalar RSUExampleScenario.node[23].nic.mac1609_4 SNIRLostPackets 26
scalar RSUExampleScenario.node[23].nic.mac1609_4 RXTXLostPackets 0
scalar RSUExampleScenario.node[23].nic.mac1609_4 TotalLostPackets 26
scalar RSUExampleScenario.node[23].nic.mac1609_4 DroppedPacketsInMac 0
scalar RSUExampleScenario.node[23].nic.mac1609_4 TooLittleTime 0
scalar RSUExampleScenario.node[23].nic.mac1609_4 TimesIntoBackoff 2
scalar RSUExampleScenario.node[23].nic.mac1609_4 SlotsBackoff 5
scalar RSUExampleScenario.node[23].nic.mac1609_4 NumInternalContention 0
scalar RSUExampleScenario.node[23].nic.mac1609_4 totalBusyTime 0.016242
scalar RSUExampleScenario.node[23].nic.mac1609_4 retriesExceeded:count 0
attr source org_car2x_veins_modules_mac_sigRetriesExceeded
scalar RSUExampleScenario.node[23].nic.mac1609_4 sentAcks:count 0
attr source org_car2x_veins_modules_mac_sigSentAck
scalar RSUExampleScenario.node[23].nic.mac1609_4 sentPackets:count 2
attr source org_car2x_veins_modules_mac_sigSentPacket
scalar RSUExampleScenario.node[23].nic.mac1609_4 collisions:count 0
attr source org_car2x_veins_modules_mac_sigCollision
scalar RSUExampleScenario.node[23].nic.mac1609_4 channelBusy:timeavg 5.8007142857143e-05
attr source org_car2x_veins_modules_mac_sigChannelBusy
scalar RSUExampleScenario.node[23].veinsmobility startTime 70
scalar RSUExampleScenario.node[23].veinsmobility totalTime 279
scalar RSUExampleScenario.node[23].veinsmobility stopTime 350
scalar RSUExampleScenario.node[23].veinsmobility minSpeed 4.0859593419879
scalar RSUExampleScenario.node[23].veinsmobility maxSpeed 13.998363435396
scalar RSUExampleScenario.node[23].veinsmobility totalDistance 3394.8645483659
scalar RSUExampleScenario.node[23].veinsmobility totalCO2Emission 573.46881770727
scalar RSUExampleScenario.node[27].appl generatedWSMs 2
scalar RSUExampleScenario.node[27].appl receivedWSMs 2
scalar RSUExampleScenario.node[27].appl generatedBSMs 0
scalar RSUExampleScenario.node[27].appl receivedBSMs 0
scalar RSUExampleScenario.node[27].appl generatedWSAs 0
scalar RSUExampleScenario.node[27].appl receivedWSAs 0
scalar RSUExampleScenario.node[27].nic.phy80211p busyTime 5.5851851851852e-05
scalar RSUExampleScenario.node[27].nic.mac1609_4 ReceivedUnicastPackets 2
scalar RSUExampleScenario.node[27].nic.mac1609_4 ReceivedBroadcasts 0
scalar RSUExampleScenario.node[27].nic.mac1609_4 SentPackets 2
scalar RSUExampleScenario.node[27].nic.mac1609_4 SentAcknowledgements 0
scalar RSUExampleScenario.node[27].nic.mac1609_4 RetriesExceeded 0
scalar RSUExampleScenario.node[27].nic.mac1609_4 SNIRLostPackets 20
scalar RSUExampleScenario.node[27].nic.mac1609_4 RXTXLostPackets 0
scalar RSUExampleScenario.node[27].nic.mac1609_4 TotalLostPackets 20
scalar RSUExampleScenario.node[27].nic.mac1609_4 DroppedPacketsInMac 0
scalar RSUExampleScenario.node[27].nic.mac1609_4 TooLittleTime 0
scalar RSUExampleScenario.node[27].nic.mac1609_4 TimesIntoBackoff 2
scalar RSUExampleScenario.node[27].nic.mac1609_4 SlotsBackoff 5
scalar RSUExampleScenario.node[27].nic.mac1609_4 NumInternalContention 0
scalar RSUExampleScenario.node[27].nic.mac1609_4 totalBusyTime 0.015546
scalar RSUExampleScenario.node[27].nic.mac1609_4 retriesExceeded:count 0
attr source org_car2x_veins_modules_mac_sigRetriesExceeded
scalar RSUExampleScenario.node[27].nic.mac1609_4 sentAcks:count 0
attr source org_car2x_veins_modules_mac_sigSentAck
scalar RSUExampleScenario.node[27].nic.mac1609_4 sentPackets:count 2
attr source org_car2x_veins_modules_mac_sigSentPacket
scalar RSUExampleScenario.node[27].nic.mac1609_4 collisions:count 0
attr source org_car2x_veins_modules_mac_sigCollision
scalar RSUExampleScenario.node[27].nic.mac1609_4 channelBusy:timeavg 5.7577777777778e-05
attr source org_car2x_veins_modules_mac_sigChannelBusy
scalar RSUExampleScenario.node[27].veinsmobility startTime 82
scalar RSUExampleScenario.node[27].veinsmobility totalTime 269
scalar RSUExampleScenario.node[27].veinsmobility stopTime 352
scalar RSUExampleScenario.node[27].veinsmobility minSpeed 3.8169569386458
scalar RSUExampleScenario.node[27].veinsmobility maxSpeed 13.998507969014
scalar RSUExampleScenario.node[27].veinsmobility totalDistance 3398.728052214
scalar RSUExampleScenario.node[27].veinsmobility totalCO2Emission 572.04412510633
scalar RSUExampleScenario.node[28].appl generatedWSMs 2
scalar RSUExampleScenario.node[28].appl receivedWSMs 2
scalar RSUExampleScenario.node[28].appl generatedBSMs 0
scalar RSUExampleScenario.node[28].appl receivedBSMs 0
scalar RSUExampleScenario.node[28].appl generatedWSAs 0
scalar RSUExampleScenario.node[28].appl receivedWSAs 0
scalar RSUExampleScenario.node[28].nic.phy80211p busyTime 6.382156133829e-05
scalar RSUExampleScenario.node[28].nic.mac1609_4 ReceivedUnicastPackets 2
scalar RSUExampleScenario.node[28].nic.mac1609_4 ReceivedBroadcasts 0
scalar RSUExampleScenario.node[28].nic.mac1609_4 SentPackets 2
scalar RSUExampleScenario.node[28].nic.mac1609_4 SentAcknowledgements 0
scalar RSUExampleScenario.node[28].nic.mac1609_4 RetriesExceeded 0
scalar RSUExampleScenario.node[28].nic.mac1609_4 SNIRLostPackets 29
scalar RSUExampleScenario.node[28].nic.mac1609_4 RXTXLostPackets 0
scalar RSUExampleScenario.node[28].nic.mac1609_4 TotalLostPackets 29
scalar RSUExampleScenario.node[28].nic.mac1609_4 DroppedPacketsInMac 0
scalar RSUExampleScenario.node[28].nic.mac1609_4 TooLittleTime 0
scalar RSUExampleScenario.node[28].nic.mac1609_4 TimesIntoBackoff 2
scalar RSUExampleScenario.node[28].nic.mac1609_4 SlotsBackoff 1
scalar RSUExampleScenario.node[28].nic.mac1609_4 NumInternalContention 0
scalar RSUExampleScenario.node[28].nic.mac1609_4 totalBusyTime 0.017634
scalar RSUExampleScenario.node[28].nic.mac1609_4 retriesExceeded:count 0
attr source org_car2x_veins_modules_mac_sigRetriesExceeded
scalar RSUExampleScenario.node[28].nic.mac1609_4 sentAcks:count 0
attr source org_car2x_veins_modules_mac_sigSentAck
scalar RSUExampleScenario.node[28].nic.mac1609_4 sentPackets:count 2
attr source org_car2x_veins_modules_mac_sigSentPacket
scalar RSUExampleScenario.node[28].nic.mac1609_4 collisions:count 0
attr source org_car2x_veins_modules_mac_sigCollision
scalar RSUExampleScenario.node[28].nic.mac1609_4 channelBusy:timeavg 6.5553903345725e-05
attr source org_car2x_veins_modules_mac_sigChannelBusy
scalar RSUExampleScenario.node[28].veinsmobility startTime 85
scalar RSUExampleScenario.node[28].veinsmobility totalTime 268
scalar RSUExampleScenario.node[28].veinsmobility stopTime 354
scalar RSUExampleScenario.node[28].veinsmobility minSpeed 4.0343364698305
scalar RSUExampleScenario.node[28].veinsmobility maxSpeed 13.999620908881
scalar RSUExampleScenario.node[28].veinsmobility totalDistance 3398.0805979654
scalar RSUExampleScenario.node[28].veinsmobility totalCO2Emission 569.64043373048
scalar RSUExampleScenario.node[29].appl generatedWSMs 2
scalar RSUExampleScenario.node[29].appl receivedWSMs 2
scalar RSUExampleScenario.node[29].appl generatedBSMs 0
scalar RSUExampleScenario.node[29].appl receivedBSMs 0
scalar RSUExampleScenario.node[29].appl generatedWSAs 0
scalar RSUExampleScenario.node[29].appl receivedWSAs 0
scalar RSUExampleScenario.node[29].nic.phy80211p busyTime 5.0208955223881e-05
scalar RSUExampleScenario.node[29].nic.mac1609_4 ReceivedUnicastPackets 2
scalar RSUExampleScenario.node[29].nic.mac1609_4 ReceivedBroadcasts 0
scalar RSUExampleScenario.node[29].nic.mac1609_4 SentPackets 2
scalar RSUExampleScenario.node[29].nic.mac1609_4 SentAcknowledgements 0
scalar RSUExampleScenario.node[29].nic.mac1609_4 RetriesExceeded 0
scalar RSUExampleScenario.node[29].nic.mac1609_4 SNIRLostPackets 10
scalar RSUExampleScenario.node[29].nic.mac1609_4 RXTXLostPackets 0
scalar RSUExampleScenario.node[29].nic.mac1609_4 TotalLostPackets 10
scalar RSUExampleScenario.node[29].nic.mac1609_4 DroppedPacketsInMac 0
scalar RSUExampleScenario.node[29].nic.mac1609_4 TooLittleTime 0
scalar RSUExampleScenario.node[29].nic.mac1609_4 TimesIntoBackoff 2
scalar RSUExampleScenario.node[29].nic.mac1609_4 SlotsBackoff 1
scalar RSUExampleScenario.node[29].nic.mac1609_4 NumInternalContention 0
scalar RSUExampleScenario.node[29].nic.mac1609_4 totalBusyTime 0.013922
scalar RSUExampleScenario.node[29].nic.mac1609_4 retriesExceeded:count 0
attr source org_car2x_veins_modules_mac_sigRetriesExceeded
scalar RSUExampleScenario.node[29].nic.mac1609_4 sentAcks:count 0
attr source org_car2x_veins_modules_mac_sigSentAck
scalar RSUExampleScenario.node[29].nic.mac1609_4 sentPackets:count 2
attr source org_car2x_veins_modules_mac_sigSentPacket
scalar RSUExampleScenario.node[29].nic.mac1609_4 collisions:count 0
attr source org_car2x_veins_modules_mac_sigCollision
scalar RSUExampleScenario.node[29].nic.mac1609_4 channelBusy:timeavg 5.194776119403e-05
attr source org_car2x_veins_modules_mac_sigChannelBusy
scalar RSUExampleScenario.node[29].veinsmobility startTime 88
scalar RSUExampleScenario.node[29].veinsmobility totalTime 267
scalar RSUExampleScenario.node[29].veinsmobility stopTime 356
scalar RSUExampleScenario.node[29].veinsmobility minSpeed 4.0013211675714
scalar RSUExampleScenario.node[29].veinsmobility maxSpeed 13.999449843408
scalar RSUExampleScenario.node[29].veinsmobility totalDistance 3401.6962556976
scalar RSUExampleScenario.node[29].veinsmobility totalCO2Emission 569.79331841392
scalar RSUExampleScenario.node[30].appl generatedWSMs 2
scalar RSUExampleScenario.node[30].appl receivedWSMs 2
scalar RSUExampleScenario.node[30].appl generatedBSMs 0
scalar RSUExampleScenario.node[30].appl receivedBSMs 0
scalar RSUExampleScenario.node[30].appl generatedWSAs 0
scalar RSUExampleScenario.node[30].appl receivedWSAs 0
scalar RSUExampleScenario.node[30].nic.phy80211p busyTime 5.2330827067669e-05
scalar RSUExampleScenario.node[30].nic.mac1609_4 ReceivedUnicastPackets 2
scalar RSUExampleScenario.node[30].nic.mac1609_4 ReceivedBroadcasts 0
scalar RSUExampleScenario.node[30].nic.mac1609_4 SentPackets 2
scalar RSUExampleScenario.node[30].nic.mac1609_4 SentAcknowledgements 0
scalar RSUExampleScenario.node[30].nic.mac1609_4 RetriesExceeded 0
scalar RSUExampleScenario.node[30].nic.mac1609_4 SNIRLostPackets 10
scalar RSUExampleScenario.node[30].nic.mac1609_4 RXTXLostPackets 0
scalar RSUExampleScenario.node[30].nic.mac1609_4 TotalLostPackets 10
scalar RSUExampleScenario.node[30].nic.mac1609_4 DroppedPacketsInMac 0
scalar RSUExampleScenario.node[30].nic.mac1609_4 TooLittleTime 0
scalar RSUExampleScenario.node[30].nic.mac1609_4 TimesIntoBackoff 2
scalar RSUExampleScenario.node[30].nic.mac1609_4 SlotsBackoff 5
scalar RSUExampleScenario.node[30].nic.mac1609_4 NumInternalContention 0
scalar RSUExampleScenario.node[30].nic.mac1609_4 totalBusyTime 0.014386
scalar RSUExampleScenario.node[30].nic.mac1609_4 retriesExceeded:count 0
attr source org_car2x_veins_modules_mac_sigRetriesExceeded
scalar RSUExampleScenario.node[30].nic.mac1609_4 sentAcks:count 0
attr source org_car2x_veins_modules_mac_sigSentAck
scalar RSUExampleScenario.node[30].nic.mac1609_4 sentPackets:count 2
attr source org_car2x_veins_modules_mac_sigSentPacket
scalar RSUExampleScenario.node[30].nic.mac1609_4 collisions:count 0
attr source org_car2x_veins_modules_mac_sigCollision
scalar RSUExampleScenario.node[30].nic.mac1609_4 channelBusy:timeavg 5.4082706766917e-05
attr source org_car2x_veins_modules_mac_sigChannelBusy
scalar RSUExampleScenario.node[30].veinsmobility startTime 91
scalar RSUExampleScenario.node[30].veinsmobility totalTime 265
scalar RSUExampleScenario.node[30].veinsmobility stopTime 357
scalar RSUExampleScenario.node[30].veinsmobility minSpeed 4.0929231651139
scalar RSUExampleScenario.node[30].veinsmobility maxSpeed 13.999186862605
scalar RSUExampleScenario.node[30].veinsmobility totalDistance 3393.8967759242
scalar RSUExampleScenario.node[30].veinsmobility totalCO2Emission 559.94542390938
scalar RSUExampleScenario.node[31].appl generatedWSMs 2
scalar RSUExampleScenario.node[31].appl receivedWSMs 2
scalar RSUExampleScenario.node[31].appl generatedBSMs 0
scalar RSUExampleScenario.node[31].appl receivedBSMs 0
scalar RSUExampleScenario.node[31].appl generatedWSAs 0
scalar RSUExampleScenario.node[31].appl receivedWSAs 0
[...]
scalar RSUExampleScenario.node[187].veinsmobility maxSpeed 13.997202571505
scalar RSUExampleScenario.node[187].veinsmobility totalDistance 3401.2355151488
scalar RSUExampleScenario.node[187].veinsmobility totalCO2Emission 566.40053719107
scalar RSUExampleScenario.node[188].appl generatedWSMs 3
scalar RSUExampleScenario.node[188].appl receivedWSMs 2
scalar RSUExampleScenario.node[188].appl generatedBSMs 0
scalar RSUExampleScenario.node[188].appl receivedBSMs 0
scalar RSUExampleScenario.node[188].appl generatedWSAs 0
scalar RSUExampleScenario.node[188].appl receivedWSAs 0
scalar RSUExampleScenario.node[188].nic.phy80211p busyTime 0.00012277042801556
scalar RSUExampleScenario.node[188].nic.mac1609_4 ReceivedUnicastPackets 2
scalar RSUExampleScenario.node[188].nic.mac1609_4 ReceivedBroadcasts 0
scalar RSUExampleScenario.node[188].nic.mac1609_4 SentPackets 3
scalar RSUExampleScenario.node[188].nic.mac1609_4 SentAcknowledgements 0
scalar RSUExampleScenario.node[188].nic.mac1609_4 RetriesExceeded 0
scalar RSUExampleScenario.node[188].nic.mac1609_4 SNIRLostPackets 4
scalar RSUExampleScenario.node[188].nic.mac1609_4 RXTXLostPackets 0
scalar RSUExampleScenario.node[188].nic.mac1609_4 TotalLostPackets 4
scalar RSUExampleScenario.node[188].nic.mac1609_4 DroppedPacketsInMac 0
scalar RSUExampleScenario.node[188].nic.mac1609_4 TooLittleTime 0
scalar RSUExampleScenario.node[188].nic.mac1609_4 TimesIntoBackoff 3
scalar RSUExampleScenario.node[188].nic.mac1609_4 SlotsBackoff 4
scalar RSUExampleScenario.node[188].nic.mac1609_4 NumInternalContention 0
scalar RSUExampleScenario.node[188].nic.mac1609_4 totalBusyTime 0.032251
scalar RSUExampleScenario.node[188].nic.mac1609_4 retriesExceeded:count 0
attr source org_car2x_veins_modules_mac_sigRetriesExceeded
scalar RSUExampleScenario.node[188].nic.mac1609_4 sentAcks:count 0
attr source org_car2x_veins_modules_mac_sigSentAck
scalar RSUExampleScenario.node[188].nic.mac1609_4 sentPackets:count 3
attr source org_car2x_veins_modules_mac_sigSentPacket
scalar RSUExampleScenario.node[188].nic.mac1609_4 collisions:count 0
attr source org_car2x_veins_modules_mac_sigCollision
scalar RSUExampleScenario.node[188].nic.mac1609_4 channelBusy:timeavg 0.00012549027237354
attr source org_car2x_veins_modules_mac_sigChannelBusy
scalar RSUExampleScenario.node[188].veinsmobility startTime 565
scalar RSUExampleScenario.node[188].veinsmobility totalTime 256
scalar RSUExampleScenario.node[188].veinsmobility stopTime 822
scalar RSUExampleScenario.node[188].veinsmobility minSpeed 4.2308020922011
scalar RSUExampleScenario.node[188].veinsmobility maxSpeed 13.999948013073
scalar RSUExampleScenario.node[188].veinsmobility totalDistance 3390.4548505544
scalar RSUExampleScenario.node[188].veinsmobility totalCO2Emission 561.40764358348
scalar RSUExampleScenario.node[189].appl generatedWSMs 3
scalar RSUExampleScenario.node[189].appl receivedWSMs 2
scalar RSUExampleScenario.node[189].appl generatedBSMs 0
scalar RSUExampleScenario.node[189].appl receivedBSMs 0
scalar RSUExampleScenario.node[189].appl generatedWSAs 0
scalar RSUExampleScenario.node[189].appl receivedWSAs 0
scalar RSUExampleScenario.node[189].nic.phy80211p busyTime 0.00012325
scalar RSUExampleScenario.node[189].nic.mac1609_4 ReceivedUnicastPackets 2
scalar RSUExampleScenario.node[189].nic.mac1609_4 ReceivedBroadcasts 0
scalar RSUExampleScenario.node[189].nic.mac1609_4 SentPackets 3
scalar RSUExampleScenario.node[189].nic.mac1609_4 SentAcknowledgements 0
scalar RSUExampleScenario.node[189].nic.mac1609_4 RetriesExceeded 0
scalar RSUExampleScenario.node[189].nic.mac1609_4 SNIRLostPackets 3
scalar RSUExampleScenario.node[189].nic.mac1609_4 RXTXLostPackets 0
scalar RSUExampleScenario.node[189].nic.mac1609_4 TotalLostPackets 3
scalar RSUExampleScenario.node[189].nic.mac1609_4 DroppedPacketsInMac 0
scalar RSUExampleScenario.node[189].nic.mac1609_4 TooLittleTime 0
scalar RSUExampleScenario.node[189].nic.mac1609_4 TimesIntoBackoff 3
scalar RSUExampleScenario.node[189].nic.mac1609_4 SlotsBackoff 1
scalar RSUExampleScenario.node[189].nic.mac1609_4 NumInternalContention 0
scalar RSUExampleScenario.node[189].nic.mac1609_4 totalBusyTime 0.032251
scalar RSUExampleScenario.node[189].nic.mac1609_4 retriesExceeded:count 0
attr source org_car2x_veins_modules_mac_sigRetriesExceeded
scalar RSUExampleScenario.node[189].nic.mac1609_4 sentAcks:count 0
attr source org_car2x_veins_modules_mac_sigSentAck
scalar RSUExampleScenario.node[189].nic.mac1609_4 sentPackets:count 3
attr source org_car2x_veins_modules_mac_sigSentPacket
scalar RSUExampleScenario.node[189].nic.mac1609_4 collisions:count 0
attr source org_car2x_veins_modules_mac_sigCollision
scalar RSUExampleScenario.node[189].nic.mac1609_4 channelBusy:timeavg 0.00012598046875
attr source org_car2x_veins_modules_mac_sigChannelBusy
scalar RSUExampleScenario.node[189].veinsmobility startTime 568
scalar RSUExampleScenario.node[189].veinsmobility totalTime 255
scalar RSUExampleScenario.node[189].veinsmobility stopTime 824
scalar RSUExampleScenario.node[189].veinsmobility minSpeed 3.961879156699
scalar RSUExampleScenario.node[189].veinsmobility maxSpeed 13.999548495514
scalar RSUExampleScenario.node[189].veinsmobility totalDistance 3391.8700072952
scalar RSUExampleScenario.node[189].veinsmobility totalCO2Emission 561.68436796301
scalar RSUExampleScenario.node[190].appl generatedWSMs 4
scalar RSUExampleScenario.node[190].appl receivedWSMs 2
scalar RSUExampleScenario.node[190].appl generatedBSMs 0
scalar RSUExampleScenario.node[190].appl receivedBSMs 0
scalar RSUExampleScenario.node[190].appl generatedWSAs 0
scalar RSUExampleScenario.node[190].appl receivedWSAs 0
scalar RSUExampleScenario.node[190].nic.phy80211p busyTime 0.0001219137254902
scalar RSUExampleScenario.node[190].nic.mac1609_4 ReceivedUnicastPackets 2
scalar RSUExampleScenario.node[190].nic.mac1609_4 ReceivedBroadcasts 0
scalar RSUExampleScenario.node[190].nic.mac1609_4 SentPackets 4
scalar RSUExampleScenario.node[190].nic.mac1609_4 SentAcknowledgements 0
scalar RSUExampleScenario.node[190].nic.mac1609_4 RetriesExceeded 0
scalar RSUExampleScenario.node[190].nic.mac1609_4 SNIRLostPackets 3
scalar RSUExampleScenario.node[190].nic.mac1609_4 RXTXLostPackets 0
scalar RSUExampleScenario.node[190].nic.mac1609_4 TotalLostPackets 3
scalar RSUExampleScenario.node[190].nic.mac1609_4 DroppedPacketsInMac 0
scalar RSUExampleScenario.node[190].nic.mac1609_4 TooLittleTime 0
scalar RSUExampleScenario.node[190].nic.mac1609_4 TimesIntoBackoff 4
scalar RSUExampleScenario.node[190].nic.mac1609_4 SlotsBackoff 3
scalar RSUExampleScenario.node[190].nic.mac1609_4 NumInternalContention 0
scalar RSUExampleScenario.node[190].nic.mac1609_4 totalBusyTime 0.03202
scalar RSUExampleScenario.node[190].nic.mac1609_4 retriesExceeded:count 0
attr source org_car2x_veins_modules_mac_sigRetriesExceeded
scalar RSUExampleScenario.node[190].nic.mac1609_4 sentAcks:count 0
attr source org_car2x_veins_modules_mac_sigSentAck
scalar RSUExampleScenario.node[190].nic.mac1609_4 sentPackets:count 4
attr source org_car2x_veins_modules_mac_sigSentPacket
scalar RSUExampleScenario.node[190].nic.mac1609_4 collisions:count 0
attr source org_car2x_veins_modules_mac_sigCollision
scalar RSUExampleScenario.node[190].nic.mac1609_4 channelBusy:timeavg 0.00012556862745098
attr source org_car2x_veins_modules_mac_sigChannelBusy
scalar RSUExampleScenario.node[190].veinsmobility startTime 571
scalar RSUExampleScenario.node[190].veinsmobility totalTime 254
scalar RSUExampleScenario.node[190].veinsmobility stopTime 826
scalar RSUExampleScenario.node[190].veinsmobility minSpeed 3.8235118129402
scalar RSUExampleScenario.node[190].veinsmobility maxSpeed 13.999171364973
scalar RSUExampleScenario.node[190].veinsmobility totalDistance 3393.5408193256
scalar RSUExampleScenario.node[190].veinsmobility totalCO2Emission 557.34437550752
scalar RSUExampleScenario.node[191].appl generatedWSMs 3
scalar RSUExampleScenario.node[191].appl receivedWSMs 2
scalar RSUExampleScenario.node[191].appl generatedBSMs 0
scalar RSUExampleScenario.node[191].appl receivedBSMs 0
scalar RSUExampleScenario.node[191].appl generatedWSAs 0
scalar RSUExampleScenario.node[191].appl receivedWSAs 0
scalar RSUExampleScenario.node[191].nic.phy80211p busyTime 0.00012056692913386
scalar RSUExampleScenario.node[191].nic.mac1609_4 ReceivedUnicastPackets 2
scalar RSUExampleScenario.node[191].nic.mac1609_4 ReceivedBroadcasts 0
scalar RSUExampleScenario.node[191].nic.mac1609_4 SentPackets 3
scalar RSUExampleScenario.node[191].nic.mac1609_4 SentAcknowledgements 0
scalar RSUExampleScenario.node[191].nic.mac1609_4 RetriesExceeded 0
scalar RSUExampleScenario.node[191].nic.mac1609_4 SNIRLostPackets 2
scalar RSUExampleScenario.node[191].nic.mac1609_4 RXTXLostPackets 0
scalar RSUExampleScenario.node[191].nic.mac1609_4 TotalLostPackets 2
scalar RSUExampleScenario.node[191].nic.mac1609_4 DroppedPacketsInMac 0
scalar RSUExampleScenario.node[191].nic.mac1609_4 TooLittleTime 0
scalar RSUExampleScenario.node[191].nic.mac1609_4 TimesIntoBackoff 3
scalar RSUExampleScenario.node[191].nic.mac1609_4 SlotsBackoff 3
scalar RSUExampleScenario.node[191].nic.mac1609_4 NumInternalContention 0
scalar RSUExampleScenario.node[191].nic.mac1609_4 totalBusyTime 0.031323
scalar RSUExampleScenario.node[191].nic.mac1609_4 retriesExceeded:count 0
attr source org_car2x_veins_modules_mac_sigRetriesExceeded
scalar RSUExampleScenario.node[191].nic.mac1609_4 sentAcks:count 0
attr source org_car2x_veins_modules_mac_sigSentAck
scalar RSUExampleScenario.node[191].nic.mac1609_4 sentPackets:count 3
attr source org_car2x_veins_modules_mac_sigSentPacket
scalar RSUExampleScenario.node[191].nic.mac1609_4 collisions:count 0
attr source org_car2x_veins_modules_mac_sigCollision
scalar RSUExampleScenario.node[191].nic.mac1609_4 channelBusy:timeavg 0.0001233188976378
attr source org_car2x_veins_modules_mac_sigChannelBusy
scalar RSUExampleScenario.node[191].veinsmobility startTime 574
scalar RSUExampleScenario.node[191].veinsmobility totalTime 253
scalar RSUExampleScenario.node[191].veinsmobility stopTime 828
scalar RSUExampleScenario.node[191].veinsmobility minSpeed 4.083114900883
scalar RSUExampleScenario.node[191].veinsmobility maxSpeed 13.999636709404
scalar RSUExampleScenario.node[191].veinsmobility totalDistance 3397.568946922
scalar RSUExampleScenario.node[191].veinsmobility totalCO2Emission 562.04625549044
scalar RSUExampleScenario.node[192].appl generatedWSMs 4
scalar RSUExampleScenario.node[192].appl receivedWSMs 2
scalar RSUExampleScenario.node[192].appl generatedBSMs 0
scalar RSUExampleScenario.node[192].appl receivedBSMs 0
scalar RSUExampleScenario.node[192].appl generatedWSAs 0
scalar RSUExampleScenario.node[192].appl receivedWSAs 0
scalar RSUExampleScenario.node[192].nic.phy80211p busyTime 0.0001178125
scalar RSUExampleScenario.node[192].nic.mac1609_4 ReceivedUnicastPackets 2
scalar RSUExampleScenario.node[192].nic.mac1609_4 ReceivedBroadcasts 0
scalar RSUExampleScenario.node[192].nic.mac1609_4 SentPackets 4
scalar RSUExampleScenario.node[192].nic.mac1609_4 SentAcknowledgements 0
scalar RSUExampleScenario.node[192].nic.mac1609_4 RetriesExceeded 0
scalar RSUExampleScenario.node[192].nic.mac1609_4 SNIRLostPackets 0
scalar RSUExampleScenario.node[192].nic.mac1609_4 RXTXLostPackets 0
scalar RSUExampleScenario.node[192].nic.mac1609_4 TotalLostPackets 0
scalar RSUExampleScenario.node[192].nic.mac1609_4 DroppedPacketsInMac 0
scalar RSUExampleScenario.node[192].nic.mac1609_4 TooLittleTime 0
scalar RSUExampleScenario.node[192].nic.mac1609_4 TimesIntoBackoff 4
scalar RSUExampleScenario.node[192].nic.mac1609_4 SlotsBackoff 7
scalar RSUExampleScenario.node[192].nic.mac1609_4 NumInternalContention 0
scalar RSUExampleScenario.node[192].nic.mac1609_4 totalBusyTime 0.031092
scalar RSUExampleScenario.node[192].nic.mac1609_4 retriesExceeded:count 0
attr source org_car2x_veins_modules_mac_sigRetriesExceeded
scalar RSUExampleScenario.node[192].nic.mac1609_4 sentAcks:count 0
attr source org_car2x_veins_modules_mac_sigSentAck
scalar RSUExampleScenario.node[192].nic.mac1609_4 sentPackets:count 4
attr source org_car2x_veins_modules_mac_sigSentPacket
scalar RSUExampleScenario.node[192].nic.mac1609_4 collisions:count 0
attr source org_car2x_veins_modules_mac_sigCollision
scalar RSUExampleScenario.node[192].nic.mac1609_4 channelBusy:timeavg 0.000121453125
attr source org_car2x_veins_modules_mac_sigChannelBusy
scalar RSUExampleScenario.node[192].veinsmobility startTime 577
scalar RSUExampleScenario.node[192].veinsmobility totalTime 255
scalar RSUExampleScenario.node[192].veinsmobility stopTime 833
scalar RSUExampleScenario.node[192].veinsmobility minSpeed 3.9423339539369
scalar RSUExampleScenario.node[192].veinsmobility maxSpeed 13.999779451308
scalar RSUExampleScenario.node[192].veinsmobility totalDistance 3400.4528962068
scalar RSUExampleScenario.node[192].veinsmobility totalCO2Emission 566.19963061524
scalar RSUExampleScenario.node[193].appl generatedWSMs 3
scalar RSUExampleScenario.node[193].appl receivedWSMs 2
scalar RSUExampleScenario.node[193].appl generatedBSMs 0
scalar RSUExampleScenario.node[193].appl receivedBSMs 0
scalar RSUExampleScenario.node[193].appl generatedWSAs 0
scalar RSUExampleScenario.node[193].appl receivedWSAs 0
scalar RSUExampleScenario.node[193].nic.phy80211p busyTime 0.00011645490196078
scalar RSUExampleScenario.node[193].nic.mac1609_4 ReceivedUnicastPackets 2
scalar RSUExampleScenario.node[193].nic.mac1609_4 ReceivedBroadcasts 0
scalar RSUExampleScenario.node[193].nic.mac1609_4 SentPackets 3
scalar RSUExampleScenario.node[193].nic.mac1609_4 SentAcknowledgements 0
scalar RSUExampleScenario.node[193].nic.mac1609_4 RetriesExceeded 0
scalar RSUExampleScenario.node[193].nic.mac1609_4 SNIRLostPackets 0
scalar RSUExampleScenario.node[193].nic.mac1609_4 RXTXLostPackets 0
scalar RSUExampleScenario.node[193].nic.mac1609_4 TotalLostPackets 0
scalar RSUExampleScenario.node[193].nic.mac1609_4 DroppedPacketsInMac 0
scalar RSUExampleScenario.node[193].nic.mac1609_4 TooLittleTime 0
scalar RSUExampleScenario.node[193].nic.mac1609_4 TimesIntoBackoff 3
scalar RSUExampleScenario.node[193].nic.mac1609_4 SlotsBackoff 5
scalar RSUExampleScenario.node[193].nic.mac1609_4 NumInternalContention 0
scalar RSUExampleScenario.node[193].nic.mac1609_4 totalBusyTime 0.030395
scalar RSUExampleScenario.node[193].nic.mac1609_4 retriesExceeded:count 0
attr source org_car2x_veins_modules_mac_sigRetriesExceeded
scalar RSUExampleScenario.node[193].nic.mac1609_4 sentAcks:count 0
attr source org_car2x_veins_modules_mac_sigSentAck
scalar RSUExampleScenario.node[193].nic.mac1609_4 sentPackets:count 3
attr source org_car2x_veins_modules_mac_sigSentPacket
scalar RSUExampleScenario.node[193].nic.mac1609_4 collisions:count 0
attr source org_car2x_veins_modules_mac_sigCollision
scalar RSUExampleScenario.node[193].nic.mac1609_4 channelBusy:timeavg 0.00011919607843137
attr source org_car2x_veins_modules_mac_sigChannelBusy
scalar RSUExampleScenario.node[193].veinsmobility startTime 580
scalar RSUExampleScenario.node[193].veinsmobility totalTime 254
scalar RSUExampleScenario.node[193].veinsmobility stopTime 835
scalar RSUExampleScenario.node[193].veinsmobility minSpeed 3.8806787562705
scalar RSUExampleScenario.node[193].veinsmobility maxSpeed 13.999372602329
scalar RSUExampleScenario.node[193].veinsmobility totalDistance 3397.5005207382
scalar RSUExampleScenario.node[193].veinsmobility totalCO2Emission 566.38095963808
scalar RSUExampleScenario.node[194].appl generatedWSMs 128
scalar RSUExampleScenario.node[194].appl receivedWSMs 1
scalar RSUExampleScenario.node[194].appl generatedBSMs 0
scalar RSUExampleScenario.node[194].appl receivedBSMs 0
scalar RSUExampleScenario.node[194].appl generatedWSAs 0
scalar RSUExampleScenario.node[194].appl receivedWSAs 0
scalar RSUExampleScenario.node[194].nic.phy80211p busyTime 9.1338582677165e-07
scalar RSUExampleScenario.node[194].nic.mac1609_4 ReceivedUnicastPackets 1
scalar RSUExampleScenario.node[194].nic.mac1609_4 ReceivedBroadcasts 0
scalar RSUExampleScenario.node[194].nic.mac1609_4 SentPackets 128
scalar RSUExampleScenario.node[194].nic.mac1609_4 SentAcknowledgements 0
scalar RSUExampleScenario.node[194].nic.mac1609_4 RetriesExceeded 0
scalar RSUExampleScenario.node[194].nic.mac1609_4 SNIRLostPackets 0
scalar RSUExampleScenario.node[194].nic.mac1609_4 RXTXLostPackets 0
scalar RSUExampleScenario.node[194].nic.mac1609_4 TotalLostPackets 0
scalar RSUExampleScenario.node[194].nic.mac1609_4 DroppedPacketsInMac 0
scalar RSUExampleScenario.node[194].nic.mac1609_4 TooLittleTime 0
scalar RSUExampleScenario.node[194].nic.mac1609_4 TimesIntoBackoff 128
scalar RSUExampleScenario.node[194].nic.mac1609_4 SlotsBackoff 189
scalar RSUExampleScenario.node[194].nic.mac1609_4 NumInternalContention 0
scalar RSUExampleScenario.node[194].nic.mac1609_4 totalBusyTime 0.030056
scalar RSUExampleScenario.node[194].nic.mac1609_4 retriesExceeded:count 0
attr source org_car2x_veins_modules_mac_sigRetriesExceeded
scalar RSUExampleScenario.node[194].nic.mac1609_4 sentAcks:count 0
attr source org_car2x_veins_modules_mac_sigSentAck
scalar RSUExampleScenario.node[194].nic.mac1609_4 sentPackets:count 128
attr source org_car2x_veins_modules_mac_sigSentPacket
scalar RSUExampleScenario.node[194].nic.mac1609_4 collisions:count 0
attr source org_car2x_veins_modules_mac_sigCollision
scalar RSUExampleScenario.node[194].nic.mac1609_4 channelBusy:timeavg 0.00011833070866142
attr source org_car2x_veins_modules_mac_sigChannelBusy
scalar RSUExampleScenario.node[194].veinsmobility startTime 583
scalar RSUExampleScenario.node[194].veinsmobility totalTime 253
scalar RSUExampleScenario.node[194].veinsmobility stopTime 837
scalar RSUExampleScenario.node[194].veinsmobility minSpeed 3.8628758454064
scalar RSUExampleScenario.node[194].veinsmobility maxSpeed 13.996660697232
scalar RSUExampleScenario.node[194].veinsmobility totalDistance 3397.9360596515
scalar RSUExampleScenario.node[194].veinsmobility totalCO2Emission 560.29381767644
scalar RSUExampleScenario.manager roiArea 0
scalar RSUExampleScenario.rsu[0].appl generatedWSMs 0
scalar RSUExampleScenario.rsu[0].appl receivedWSMs 0
scalar RSUExampleScenario.rsu[0].appl generatedBSMs 0
scalar RSUExampleScenario.rsu[0].appl receivedBSMs 0
scalar RSUExampleScenario.rsu[0].appl generatedWSAs 0
scalar RSUExampleScenario.rsu[0].appl receivedWSAs 0
scalar RSUExampleScenario.rsu[0].nic.phy80211p busyTime 0.00014001882352941
scalar RSUExampleScenario.rsu[0].nic.mac1609_4 ReceivedUnicastPackets 0
scalar RSUExampleScenario.rsu[0].nic.mac1609_4 ReceivedBroadcasts 0
scalar RSUExampleScenario.rsu[0].nic.mac1609_4 SentPackets 0
scalar RSUExampleScenario.rsu[0].nic.mac1609_4 SentAcknowledgements 0
scalar RSUExampleScenario.rsu[0].nic.mac1609_4 RetriesExceeded 0
scalar RSUExampleScenario.rsu[0].nic.mac1609_4 SNIRLostPackets 420
scalar RSUExampleScenario.rsu[0].nic.mac1609_4 RXTXLostPackets 0
scalar RSUExampleScenario.rsu[0].nic.mac1609_4 TotalLostPackets 420
scalar RSUExampleScenario.rsu[0].nic.mac1609_4 DroppedPacketsInMac 0
scalar RSUExampleScenario.rsu[0].nic.mac1609_4 TooLittleTime 0
scalar RSUExampleScenario.rsu[0].nic.mac1609_4 TimesIntoBackoff 0
scalar RSUExampleScenario.rsu[0].nic.mac1609_4 SlotsBackoff 0
scalar RSUExampleScenario.rsu[0].nic.mac1609_4 NumInternalContention 0
scalar RSUExampleScenario.rsu[0].nic.mac1609_4 totalBusyTime 0.119016
scalar RSUExampleScenario.rsu[0].nic.mac1609_4 retriesExceeded:count 0
attr source org_car2x_veins_modules_mac_sigRetriesExceeded
scalar RSUExampleScenario.rsu[0].nic.mac1609_4 sentAcks:count 0
attr source org_car2x_veins_modules_mac_sigSentAck
scalar RSUExampleScenario.rsu[0].nic.mac1609_4 sentPackets:count 0
attr source org_car2x_veins_modules_mac_sigSentPacket
scalar RSUExampleScenario.rsu[0].nic.mac1609_4 collisions:count 0
attr source org_car2x_veins_modules_mac_sigCollision
scalar RSUExampleScenario.rsu[0].nic.mac1609_4 channelBusy:timeavg 0.00014001882352941
attr source org_car2x_veins_modules_mac_sigChannelBusy

