file 234479 1692931444                                          
version 2
run General-0-20230824-23:43:54-5943
attr configname General
attr datetime 20230824-23:43:54
attr experiment General
attr inifile omnetpp.ini
attr iterationvars ""
attr iterationvarsf ""
attr measurement ""
attr network RSUExampleScenario
attr processid 5943
attr repetition 0
attr replication #0
attr resultdir results
attr runnumber 0
attr seedset 0
param *.playgroundSizeX 2500m
param *.playgroundSizeY 2500m
param *.playgroundSizeZ 50m
param *.annotations.draw true
param *.obstacles.obstacles "xmldoc(\"config.xml\", \"//AnalogueModel[@type='SimpleObstacleShadowing']/obstacles\")"
param *.manager.updateInterval 1s
param *.manager.host "\"localhost\""
param *.manager.port 9999
param *.manager.autoShutdown true
param *.manager.launchConfig "xmldoc(\"erlangen.launchd.xml\")"
param *.rsu[0].mobility.x 2000
param *.rsu[0].mobility.y 2000
param *.rsu[0].mobility.z 3
param *.rsu[*].applType "\"TraCIDemoRSU11p\""
param *.rsu[*].appl.headerLength "80 bit"
param *.rsu[*].appl.sendBeacons false
param *.rsu[*].appl.dataOnSch false
param *.rsu[*].appl.beaconInterval 1s
param *.rsu[*].appl.beaconUserPriority 7
param *.rsu[*].appl.dataUserPriority 5
param *.rsu[*].nic.phy80211p.antennaOffsetZ "0 m"
param *.connectionManager.sendDirect true
param *.connectionManager.maxInterfDist 2600m
param *.connectionManager.drawMaxIntfDist false
param *.**.nic.mac1609_4.useServiceChannel false
param *.**.nic.mac1609_4.txPower 20mW
param *.**.nic.mac1609_4.bitrate 6Mbps
param *.**.nic.phy80211p.minPowerLevel -110dBm
param *.**.nic.phy80211p.useNoiseFloor true
param *.**.nic.phy80211p.noiseFloor -98dBm
param *.**.nic.phy80211p.decider "xmldoc(\"config.xml\")"
param *.**.nic.phy80211p.analogueModels "xmldoc(\"config.xml\")"
param *.**.nic.phy80211p.usePropagationDelay false
param *.**.nic.phy80211p.antenna "xmldoc(\"antenna.xml\", \"/root/Antenna[@id='monopole']\")"
param *.node[*].nic.phy80211p.antennaOffsetY "0 m"
param *.node[*].nic.phy80211p.antennaOffsetZ "1.895 m"
param *.node[*].applType "\"TraCIDemo11p\""
param *.node[*].appl.headerLength "80 bit"
param *.node[*].appl.sendBeacons false
param *.node[*].appl.dataOnSch false
param *.node[*].appl.beaconInterval 1s
param *.node[*].veinsmobility.x 0
param *.node[*].veinsmobility.y 0
param *.node[*].veinsmobility.z 0
param *.node[*].veinsmobility.setHostSpeed false

vector 0 RSUExampleScenario.node[0].veinsmobility posx ETV
vector 1 RSUExampleScenario.node[0].veinsmobility posy ETV
vector 2 RSUExampleScenario.node[0].veinsmobility speed ETV
vector 3 RSUExampleScenario.node[0].veinsmobility acceleration ETV
vector 4 RSUExampleScenario.node[0].veinsmobility co2emission ETV
vector 5 RSUExampleScenario.node[1].veinsmobility posx ETV
vector 6 RSUExampleScenario.node[1].veinsmobility posy ETV
vector 7 RSUExampleScenario.node[1].veinsmobility speed ETV
vector 8 RSUExampleScenario.node[1].veinsmobility acceleration ETV
vector 9 RSUExampleScenario.node[1].veinsmobility co2emission ETV
vector 10 RSUExampleScenario.node[2].veinsmobility posx ETV
vector 11 RSUExampleScenario.node[2].veinsmobility posy ETV
vector 12 RSUExampleScenario.node[2].veinsmobility speed ETV
vector 13 RSUExampleScenario.node[2].veinsmobility acceleration ETV
vector 14 RSUExampleScenario.node[2].veinsmobility co2emission ETV
vector 15 RSUExampleScenario.node[3].veinsmobility posx ETV
vector 16 RSUExampleScenario.node[3].veinsmobility posy ETV
vector 17 RSUExampleScenario.node[3].veinsmobility speed ETV
vector 18 RSUExampleScenario.node[3].veinsmobility acceleration ETV
vector 19 RSUExampleScenario.node[3].veinsmobility co2emission ETV
vector 20 RSUExampleScenario.node[4].veinsmobility posx ETV
vector 21 RSUExampleScenario.node[4].veinsmobility posy ETV
vector 22 RSUExampleScenario.node[4].veinsmobility speed ETV
vector 23 RSUExampleScenario.node[4].veinsmobility acceleration ETV
vector 24 RSUExampleScenario.node[4].veinsmobility co2emission ETV
vector 25 RSUExampleScenario.node[5].veinsmobility posx ETV
vector 26 RSUExampleScenario.node[5].veinsmobility posy ETV
vector 27 RSUExampleScenario.node[5].veinsmobility speed ETV
vector 28 RSUExampleScenario.node[5].veinsmobility acceleration ETV
vector 29 RSUExampleScenario.node[5].veinsmobility co2emission ETV
vector 30 RSUExampleScenario.node[6].veinsmobility posx ETV
vector 31 RSUExampleScenario.node[6].veinsmobility posy ETV
vector 32 RSUExampleScenario.node[6].veinsmobility speed ETV
vector 33 RSUExampleScenario.node[6].veinsmobility acceleration ETV
vector 34 RSUExampleScenario.node[6].veinsmobility co2emission ETV
vector 35 RSUExampleScenario.node[7].veinsmobility posx ETV
vector 36 RSUExampleScenario.node[7].veinsmobility posy ETV
vector 37 RSUExampleScenario.node[7].veinsmobility speed ETV
vector 38 RSUExampleScenario.node[7].veinsmobility acceleration ETV
vector 39 RSUExampleScenario.node[7].veinsmobility co2emission ETV
vector 40 RSUExampleScenario.node[8].veinsmobility posx ETV
vector 41 RSUExampleScenario.node[8].veinsmobility posy ETV
vector 42 RSUExampleScenario.node[8].veinsmobility speed ETV
vector 43 RSUExampleScenario.node[8].veinsmobility acceleration ETV
vector 44 RSUExampleScenario.node[8].veinsmobility co2emission ETV
vector 45 RSUExampleScenario.node[9].veinsmobility posx ETV
vector 46 RSUExampleScenario.node[9].veinsmobility posy ETV
vector 47 RSUExampleScenario.node[9].veinsmobility speed ETV
vector 48 RSUExampleScenario.node[9].veinsmobility acceleration ETV
vector 49 RSUExampleScenario.node[9].veinsmobility co2emission ETV
vector 50 RSUExampleScenario.node[10].veinsmobility posx ETV
vector 51 RSUExampleScenario.node[10].veinsmobility posy ETV
vector 52 RSUExampleScenario.node[10].veinsmobility speed ETV
vector 53 RSUExampleScenario.node[10].veinsmobility acceleration ETV
vector 54 RSUExampleScenario.node[10].veinsmobility co2emission ETV
vector 55 RSUExampleScenario.node[11].veinsmobility posx ETV
vector 56 RSUExampleScenario.node[11].veinsmobility posy ETV
vector 57 RSUExampleScenario.node[11].veinsmobility speed ETV
vector 58 RSUExampleScenario.node[11].veinsmobility acceleration ETV
vector 59 RSUExampleScenario.node[11].veinsmobility co2emission ETV
vector 60 RSUExampleScenario.node[12].veinsmobility posx ETV
vector 61 RSUExampleScenario.node[12].veinsmobility posy ETV
vector 62 RSUExampleScenario.node[12].veinsmobility speed ETV
vector 63 RSUExampleScenario.node[12].veinsmobility acceleration ETV
vector 64 RSUExampleScenario.node[12].veinsmobility co2emission ETV
vector 65 RSUExampleScenario.node[13].veinsmobility posx ETV
vector 66 RSUExampleScenario.node[13].veinsmobility posy ETV
vector 67 RSUExampleScenario.node[13].veinsmobility speed ETV
vector 68 RSUExampleScenario.node[13].veinsmobility acceleration ETV
vector 69 RSUExampleScenario.node[13].veinsmobility co2emission ETV
vector 70 RSUExampleScenario.node[14].veinsmobility posx ETV
vector 71 RSUExampleScenario.node[14].veinsmobility posy ETV
vector 72 RSUExampleScenario.node[14].veinsmobility speed ETV
vector 73 RSUExampleScenario.node[14].veinsmobility acceleration ETV
vector 74 RSUExampleScenario.node[14].veinsmobility co2emission ETV
vector 75 RSUExampleScenario.node[15].veinsmobility posx ETV
vector 76 RSUExampleScenario.node[15].veinsmobility posy ETV
vector 77 RSUExampleScenario.node[15].veinsmobility speed ETV
vector 78 RSUExampleScenario.node[15].veinsmobility acceleration ETV
vector 79 RSUExampleScenario.node[15].veinsmobility co2emission ETV
vector 80 RSUExampleScenario.node[16].veinsmobility posx ETV
vector 81 RSUExampleScenario.node[16].veinsmobility posy ETV
vector 82 RSUExampleScenario.node[16].veinsmobility speed ETV
vector 83 RSUExampleScenario.node[16].veinsmobility acceleration ETV
vector 84 RSUExampleScenario.node[16].veinsmobility co2emission ETV
vector 85 RSUExampleScenario.node[17].veinsmobility posx ETV
vector 86 RSUExampleScenario.node[17].veinsmobility posy ETV
vector 87 RSUExampleScenario.node[17].veinsmobility speed ETV
vector 88 RSUExampleScenario.node[17].veinsmobility acceleration ETV
vector 89 RSUExampleScenario.node[17].veinsmobility co2emission ETV
vector 90 RSUExampleScenario.node[18].veinsmobility posx ETV
vector 91 RSUExampleScenario.node[18].veinsmobility posy ETV
vector 92 RSUExampleScenario.node[18].veinsmobility speed ETV
vector 93 RSUExampleScenario.node[18].veinsmobility acceleration ETV
vector 94 RSUExampleScenario.node[18].veinsmobility co2emission ETV
vector 95 RSUExampleScenario.node[19].veinsmobility posx ETV
vector 96 RSUExampleScenario.node[19].veinsmobility posy ETV
vector 97 RSUExampleScenario.node[19].veinsmobility speed ETV
vector 98 RSUExampleScenario.node[19].veinsmobility acceleration ETV
vector 99 RSUExampleScenario.node[19].veinsmobility co2emission ETV
vector 100 RSUExampleScenario.node[20].veinsmobility posx ETV
vector 101 RSUExampleScenario.node[20].veinsmobility posy ETV
vector 102 RSUExampleScenario.node[20].veinsmobility speed ETV
vector 103 RSUExampleScenario.node[20].veinsmobility acceleration ETV
vector 104 RSUExampleScenario.node[20].veinsmobility co2emission ETV
vector 105 RSUExampleScenario.node[21].veinsmobility posx ETV
vector 106 RSUExampleScenario.node[21].veinsmobility posy ETV
vector 107 RSUExampleScenario.node[21].veinsmobility speed ETV
vector 108 RSUExampleScenario.node[21].veinsmobility acceleration ETV
vector 109 RSUExampleScenario.node[21].veinsmobility co2emission ETV
vector 110 RSUExampleScenario.node[22].veinsmobility posx ETV
vector 111 RSUExampleScenario.node[22].veinsmobility posy ETV
vector 112 RSUExampleScenario.node[22].veinsmobility speed ETV
vector 113 RSUExampleScenario.node[22].veinsmobility acceleration ETV
vector 114 RSUExampleScenario.node[22].veinsmobility co2emission ETV
vector 115 RSUExampleScenario.node[23].veinsmobility posx ETV
vector 116 RSUExampleScenario.node[23].veinsmobility posy ETV
vector 117 RSUExampleScenario.node[23].veinsmobility speed ETV
vector 118 RSUExampleScenario.node[23].veinsmobility acceleration ETV
vector 119 RSUExampleScenario.node[23].veinsmobility co2emission ETV
vector 120 RSUExampleScenario.node[24].veinsmobility posx ETV
vector 121 RSUExampleScenario.node[24].veinsmobility posy ETV
vector 122 RSUExampleScenario.node[24].veinsmobility speed ETV
vector 123 RSUExampleScenario.node[24].veinsmobility acceleration ETV
vector 124 RSUExampleScenario.node[24].veinsmobility co2emission ETV
vector 125 RSUExampleScenario.node[25].veinsmobility posx ETV
vector 126 RSUExampleScenario.node[25].veinsmobility posy ETV
vector 127 RSUExampleScenario.node[25].veinsmobility speed ETV
vector 128 RSUExampleScenario.node[25].veinsmobility acceleration ETV
vector 129 RSUExampleScenario.node[25].veinsmobility co2emission ETV
vector 130 RSUExampleScenario.node[26].veinsmobility posx ETV
vector 131 RSUExampleScenario.node[26].veinsmobility posy ETV
vector 132 RSUExampleScenario.node[26].veinsmobility speed ETV
vector 133 RSUExampleScenario.node[26].veinsmobility acceleration ETV
vector 134 RSUExampleScenario.node[26].veinsmobility co2emission ETV
vector 135 RSUExampleScenario.node[27].veinsmobility posx ETV
vector 136 RSUExampleScenario.node[27].veinsmobility posy ETV
vector 137 RSUExampleScenario.node[27].veinsmobility speed ETV
vector 138 RSUExampleScenario.node[27].veinsmobility acceleration ETV
vector 139 RSUExampleScenario.node[27].veinsmobility co2emission ETV
vector 140 RSUExampleScenario.node[28].veinsmobility posx ETV
vector 141 RSUExampleScenario.node[28].veinsmobility posy ETV
vector 142 RSUExampleScenario.node[28].veinsmobility speed ETV
vector 143 RSUExampleScenario.node[28].veinsmobility acceleration ETV
vector 144 RSUExampleScenario.node[28].veinsmobility co2emission ETV
vector 145 RSUExampleScenario.node[29].veinsmobility posx ETV
vector 146 RSUExampleScenario.node[29].veinsmobility posy ETV
vector 147 RSUExampleScenario.node[29].veinsmobility speed ETV
vector 148 RSUExampleScenario.node[29].veinsmobility acceleration ETV
vector 149 RSUExampleScenario.node[29].veinsmobility co2emission ETV
vector 150 RSUExampleScenario.node[30].veinsmobility posx ETV
vector 151 RSUExampleScenario.node[30].veinsmobility posy ETV
vector 152 RSUExampleScenario.node[30].veinsmobility speed ETV
vector 153 RSUExampleScenario.node[30].veinsmobility acceleration ETV
vector 154 RSUExampleScenario.node[30].veinsmobility co2emission ETV
vector 155 RSUExampleScenario.node[31].veinsmobility posx ETV
vector 156 RSUExampleScenario.node[31].veinsmobility posy ETV
vector 157 RSUExampleScenario.node[31].veinsmobility speed ETV
vector 158 RSUExampleScenario.node[31].veinsmobility acceleration ETV
vector 159 RSUExampleScenario.node[31].veinsmobility co2emission ETV
vector 160 RSUExampleScenario.node[32].veinsmobility posx ETV
vector 161 RSUExampleScenario.node[32].veinsmobility posy ETV
vector 162 RSUExampleScenario.node[32].veinsmobility speed ETV
vector 163 RSUExampleScenario.node[32].veinsmobility acceleration ETV
vector 164 RSUExampleScenario.node[32].veinsmobility co2emission ETV
0	12934 2483 2 3300 1 99 99 1898.860628812 2450.6248001783 225983.46867403 518909058.781
1	15417 2488 2 3300 1 99 99 1578.4613427464 2120.9360540062 189023.16341624 363926426.56851
2	17905 2463 3 3300 2 99 98 4.1061966058897 13.999815066161 1293.5363971729 17453.190686072
3	20368 2630 4 3300 3 99 97 -4.5 2.2078255666373 9.8175964352785 97.58477991941
4	22998 2406 4 3300 3 99 97 0.973 8.9023657158011 251.29048583037 917.91341943721
5	25404 2421 5 3300 4 99 96 1930.4505492545 2450.4780716181 220346.26348735 508358847.31882
6	27825 2416 5 3300 4 99 96 1578.4506684253 2120.5707901428 183493.99883273 353744600.45029
7	30241 2397 6 3300 5 99 95 4.0332649588119 13.999323605334 1249.4047774002 16810.208351197
8	32638 2582 7 3300 6 99 94 -4.4892687861132 2.0988350649318 9.8814241288649 86.784892163111
9	35220 2331 7 3300 6 99 94 0.973 8.7525284671264 240.72384607127 877.31408907605
10	37551 2443 8 3300 7 99 93 1958.3543494703 2450.659299592 214445.26126335 496714153.65293
11	39994 2438 8 3300 7 99 93 1578.4476927174 2120.9589145361 177914.75946963 343361893.98651
12	42432 2423 9 3300 8 99 92 3.930963162637 13.997537077854 1209.5878711225 16259.004191957
13	44855 2598 10 3300 9 99 91 -4.4962264973393 2.0878022219194 9.9604546496978 86.246905200649
14	47453 2343 10 3300 9 99 91 0.973 8.2469806235914 234.831761631 857.62781451184
15	49796 2375 11 3300 10 99 90 1988.1404383939 2450.5176811377 208504.42921825 484929506.70641
16	52171 2380 11 3300 10 99 90 1578.4548774119 2120.90069908 172269.6285947 332730746.16115
17	54551 2356 13 3300 11 99 89 4.0076977833542 13.999869057706 1168.5090856416 15702.997423387
18	56907 2504 100 3300 12 99 88 -4.5 2.1600366940722 9.906900985295 93.677150365727
19	59411 2261 100 3300 12 99 88 0.973 8.3694083781091 231.6147070934 879.20872048154
20	61672 2305 102 3300 13 99 87 2034.0581337555 2450.2645866362 203093.07161113 475514730.98534
21	63977 2299 102 3300 13 99 87 1578.4413889889 2120.7883864809 165943.71579626 319612005.14269
22	66276 2280 134 3300 14 99 86 4.1202440707026 13.992288785644 1104.1401448847 14530.753362565
23	68556 2440 135 3300 15 99 85 -4.4202670209802 2.2053875824949 9.7604202868498 82.482634966866
24	70996 2211 135 3300 15 99 85 0.973 8.3105242583869 219.04247131666 790.46798493551
25	73207 2222 167 3300 16 99 84 2057.6142178632 2450.2291497608 196711.41360889 461875345.10883
26	75429 2221 167 3300 16 99 84 1578.4544820301 2120.7722106203 160422.67959153 309394599.11429
27	77650 2192 168 3300 17 99 83 4.11254450365 13.998108282317 1070.5989936195 14199.896462337
28	79842 2338 202 3300 18 99 82 -4.1476450008758 2.2240570376068 9.8014268095462 89.683257144697
29	82180 2088 202 3300 18 99 82 0.973 8.8530434321966 219.03103809774 861.83027367712
30	84268 2151 203 3300 19 99 81 2084.8293337134 2450.4280289282 190512.38114231 449064067.55262
31	86419 2147 203 3300 19 99 81 1578.4572625495 2120.8566767089 154299.58410358 296948465.35519
32	88566 2116 239 3300 20 99 80 4.067372106413 13.999156328384 1029.3405565637 13610.335016302
33	90682 2248 240 3300 21 99 79 -4.5 2.4234314252366 9.9135228256494 95.881965967485
34	92930 2026 240 3300 21 99 79 0.973 7.9969762628647 210.76185376756 812.7092560616
35	94956 2067 276 3300 22 99 78 2155.6579461953 2450.4365012295 185721.1591681 442674468.08364
36	97023 2070 276 3300 22 99 78 1578.4561478766 2120.6614999305 146599.27649424 278507379.01468
37	99093 2046 277 3300 23 99 77 4.0608742667126 13.999091608806 931.22106945478 11552.821738595
38	101139 2198 315 3300 24 99 76 -4.094616017928 2.2555459074327 8.8026822211122 44.748147533058
39	103337 1994 315 3300 24 99 76 0.973 7.8139621935621 174.18807174117 527.16339357422
40	105331 1986 316 3300 25 99 75 2172.147427549 2450.3239084678 178896.81481063 427113167.39068
41	107317 1993 316 3300 25 99 75 1578.4503688179 2120.8279265687 141003.89686138 267932547.7425
42	109310 1962 359 3300 26 99 74 4.0643546214392 13.971221750486 911.7379846936 11537.349027642
43	111272 2089 360 3300 27 99 73 -2.5356489940785 2.2392650089366 9.3630430235645 47.040873534851
44	113361 1846 360 3300 27 99 73 0.973 8.1642209683009 174.63789176544 618.25760690372
45	115207 1910 400 3300 28 99 72 2189.7141100257 2450.5540833102 172048.0338481 411444368.11463
46	117117 1913 400 3300 28 99 72 1578.4516975414 2120.7919995487 135332.02391408 257086919.19499
47	119030 1885 401 3300 29 99 71 3.8828872453123 13.992728596821 893.23389577302 11554.136840236
48	120915 1990 443 3300 30 99 70 -2.1823455372089 2.1636936872965 9.911566366531 47.712306457934
49	122905 1792 443 3300 30 99 70 0.973 8.0769545765064 173.79100466554 630.50644739798
50	124697 1832 444 3300 31 99 69 2207.8920101266 2450.3828549772 165118.23223692 395399370.88113
51	126529 1833 444 3300 31 99 69 1578.4486005865 2120.7039867258 129542.07370106 245809663.9934
52	128362 1804 491 3300 32 99 68 4.1947202222332 13.999046168965 873.84502880969 11524.020813915
53	130166 1916 492 3300 33 99 67 -3.1158763178945 2.2461710704397 9.8043259467321 53.485336534722
54	132082 1736 492 3300 33 99 67 0.973 8.8976355453378 173.02446779822 650.23807665193
55	133818 1756 536 3300 34 99 66 2236.6156416115 2450.2307157078 158246.12639092 379620894.07494
56	135574 1757 536 3300 34 99 66 1578.4356359942 2120.7777846977 123277.03380941 232747626.65848
57	137331 1725 537 3300 35 99 65 3.8489417596173 13.985598736692 845.00228695239 11261.299037632
58	139056 1850 586 3300 36 99 64 -3.7792833418176 2.3961217227788 10.066893069976 52.926331438452
59	140906 1684 586 3300 36 99 64 0.973 8.73746890554 164.60539290637 594.56850880387
60	142590 1679 587 3300 37 99 63 2284.0823553792 2450.6306422632 151544.36355358 364658849.13999
61	144269 1676 587 3300 37 99 63 1578.451217806 2120.9520459101 116750.4144374 218639209.3974
62	145945 1657 638 3300 38 99 62 3.9219617499206 13.999378900521 797.94021232132 10553.242281905
63	147602 1741 639 3300 39 99 61 -4.5 2.0558448842494 10.069453763049 51.088079700113
64	149343 1606 639 3300 39 99 61 0.973 8.3627117543138 156.93854251856 558.50903896543
65	150949 1601 687 3300 40 99 60 2318.5198699826 2450.1499671022 144632.8677591 348734377.52465
66	152550 1594 687 3300 40 99 60 1578.4448455973 2120.7260294929 110645.22964118 206118629.30582
67	154144 1572 688 3300 41 99 59 4.0161385181755 13.998249822583 762.88876829804 10144.108300276
68	155716 1674 738 3300 42 99 58 -2.3446006342261 2.0804082644917 9.9569056350087 41.461115597911
69	157390 1506 738 3300 42 99 58 0.973 8.5606523284014 152.24429968584 560.2083563667
70	158896 1522 739 3300 43 99 57 2334.4301713972 2450.6330954138 137618.49969277 332331835.57896
71	160418 1522 739 3300 43 99 57 1578.4619682319 2120.9558397355 104507.64887718 193478152.56879
72	161940 1499 791 3300 44 99 56 3.9992962979057 13.999124200887 728.69994474396 9750.8691997791
73	163439 1588 792 3300 45 99 55 -3.8456400924426 2.1980071439291 9.9940452907214 51.594396069456
74	165027 1451 792 3300 45 99 55 0.973 8.7718288962126 148.59906686592 580.60594460463
75	166478 1448 844 3300 46 99 54 2334.3497222776 2450.6169209509 130519.33384372 315532462.4039
76	167926 1447 844 3300 46 99 54 1578.4567965213 2120.934805207 98150.482652223 180003225.82336
77	169373 1423 845 3300 47 99 53 4.1510441398274 13.996701665553 686.75431812495 9165.7207588053
78	170796 1503 899 3300 48 99 52 -4.4635479538827 2.0671690396545 9.8210825701894 53.130595278286
79	172299 1363 899 3300 48 99 52 0.973 8.0918748703575 142.08871633382 557.48379577751
80	173662 1365 900 3300 49 99 51 2334.7865815668 2450.5254289502 123289.09234285 298106633.06153
81	175027 1369 900 3300 49 99 51 1578.4441374587 2106.2921823794 91732.330878192 166311036.72198
82	176396 1343 959 3300 50 99 50 3.8447853377257 13.994805302613 643.45497796998 8559.684630119
83	177739 1413 960 3300 51 99 49 -4.4674361181588 2.078282451923 10.145617281203 50.927776040054
84	179152 1288 960 3300 51 99 49 0.973 8.7472268623497 135.25440917805 527.68844431681
85	180440 1291 1019 3300 52 99 48 2333.8836589833 2450.3597394241 115584.96617084 278402630.72695
86	181731 1288 1019 3300 52 99 48 1578.4585047252 1960.2042430602 83227.852503729 144899665.74954
87	183019 1260 1020 3300 53 99 47 3.8698786158062 12.0609251697 494.79921105977 5350.8761523354
88	184279 1336 1081 3300 54 99 46 -2.7754211128362 2.0160195135884 8.1622033702922 26.397666386378
89	185615 1222 1081 3300 54 99 46 0.973 6.7330751485819 103.34107013205 307.76919624309
90	186837 1209 1082 3300 55 99 45 2334.635949342 2450.4524190207 108349.40417185 260946070.26675
91	188046 1210 1082 3300 55 99 45 1578.4678993914 1942.9960224787 77844.430179137 135158797.77531
92	189256 1187 1148 3300 56 99 44 4.0700236807532 12.951351441674 476.43899842026 5322.3425626029
93	190443 1236 1149 3300 57 99 43 -1.9890481690938 2.3297191780875 7.9684058220378 37.396650172804
94	191679 1091 1149 3300 57 99 43 0.973 8.3363783621892 103.61857018478 409.27068072651
95	192770 1125 1218 3300 58 99 42 2334.0024995889 2450.4624753713 101138.00031289 243603236.29051
96	193895 1131 1218 3300 58 99 42 1578.4570502462 1925.7236468466 72412.311420178 125272370.557
97	195026 1103 1219 3300 59 99 41 3.8447639940612 13.489648629711 460.05115610012 5363.3215548605
98	196129 1146 1290 3300 60 99 40 -1.7387635858037 2.222100084126 8.1525662394777 37.953170494459
99	197275 967 1290 3300 60 99 40 0.973 8.3204552480567 100.49392573145 429.46401371016
100	198242 1087 1291 3300 61 99 39 2334.2278371524 2449.1803709969 93889.081554149 226081602.3603
101	199329 1085 1291 3300 61 99 39 1578.4478435991 1908.0921834474 66991.222672362 115426993.62101
102	200414 1059 1367 3300 62 99 38 4.018615917157 13.970749160051 443.2157917519 5402.7679992666
103	201473 1098 1368 3300 63 99 37 -2.198287774594 2.1492465194734 8.1978477071247 45.216645913955
104	202571 944 1368 3300 63 99 37 0.973 8.1667304192483 103.25696043659 478.65166486737
105	203515 1003 1444 3300 64 99 36 2333.8926936223 2447.1199065015 86499.631393638 207887932.26597
106	204518 1003 1444 3300 64 99 36 1578.4634011481 1879.7567334929 61281.92007049 104582769.73207
107	205521 973 1445 3300 65 99 35 4.2842987557744 13.982297447908 414.90450494832 5113.7045938228
108	206494 1013 1529 3300 66 99 34 -2.965684290064 2.279591250075 9.6210295307486 42.167237162453
109	207507 928 1529 3300 66 99 34 0.973 8.0062312204286 99.015655488176 416.43516383293
110	208435 919 1530 3300 67 99 33 2334.1342350811 2445.1024962479 79268.261989686 190450037.72106
111	209354 922 1530 3300 67 99 33 1578.4618975855 1852.0133642638 55901.54767766 94895659.667718
112	210276 891 1619 3300 68 99 32 4.1832233416825 13.972577105726 387.31763365615 4917.8525507143
113	211167 918 1620 3300 69 99 31 -2.4922948446457 2.2485749843647 9.7323123232763 47.948725587027
114	212085 826 1620 3300 69 99 31 0.973 7.8311198804753 98.33434861233 472.42485980077
115	212911 835 1709 3300 70 99 30 2334.510232391 2438.0748415769 71622.703901255 171026825.6815
116	213746 834 1709 3300 70 99 30 1578.4517848091 1753.8273821902 49851.231021904 82916972.248463
117	214580 811 1710 3300 71 99 29 4.0859593419879 12.486085439863 288.08623191836 2948.4286283072
118	215391 832 1801 3300 72 99 28 -1.8757059074481 2.0294341745344 8.3423810554903 24.001090047476
119	216223 761 1801 3300 72 99 28 0.973 7.429044537753 71.480794935595 262.13040178393
120	216984 753 1802 3300 73 99 27 2334.0507973665 2434.6617136167 64411.588469539 153688451.35249
121	217737 756 1802 3300 73 99 27 1578.4505975069 1730.4991154522 44757.694080685 74257003.768942
122	218493 723 1895 3300 74 99 26 4.0735588402093 13.473405913325 265.56213351023 2838.3334419413
123	219216 732 1896 3300 75 99 25 -1.3746847264637 2.2564944986859 9.3998470731153 32.354930678417
124	219948 630 1896 3300 75 99 25 0.973 8.3392083846763 72.356196837125 365.69168069349
125	220578 668 1989 3300 76 99 24 2334.4174806303 2431.502013637 57212.198204597 136405829.04274
126	221246 666 1989 3300 76 99 24 1578.4519604994 1709.7066829596 39674.367698507 65638373.844128
127	221912 642 1990 3300 77 99 23 4.0635240824116 13.936045407304 242.91984922144 2732.7564291928
128	222554 646 2085 3300 78 99 22 -1.5678357862427 2.0509393013455 6.1183209189941 29.58368648
129	223200 515 2085 3300 78 99 22 0.973 8.6102118406059 61.407179533414 297.39462425826
130	223715 586 2086 3300 79 99 21 2334.9106088879 2420.3791153014 49972.21126954 118930928.32824
131	224301 585 2086 3300 79 99 21 1578.4618988531 1700.7025510259 34551.481383472 56892220.381181
132	224886 559 2189 3300 80 99 20 4.0267229073465 13.562368140693 223.33514353965 2656.8448433813
133	225445 556 2190 3300 81 99 19 -1.800034765683 1.9210104491166 3.6430734652407 25.064141060786
134	226001 482 2190 3300 81 99 19 0.973 7.7976945860273 52.228562846929 226.44447180669
135	226483 503 2296 3300 82 99 18 2334.6822450395 2414.8840517174 42756.445568943 101573913.10838
136	226986 504 2296 3300 82 99 18 1578.4479903299 1698.4772334993 29458.571022847 48246303.573982
137	227490 473 2297 3300 83 99 17 3.8169569386458 13.981699167432 201.69785785151 2560.3799430029
138	227963 469 2411 3300 84 99 16 -1.5824979033941 2.009175325504 7.7539724676071 21.495233455713
139	228432 426 2411 3300 84 99 16 0.973 7.7541670228011 52.383487067844 242.21058690921
140	228858 420 2412 3300 85 99 15 2334.4833669321 2414.8736667775 35600.691027575 84505279.328599
141	229278 420 2412 3300 85 99 15 1578.4518036256 1692.1457656417 24377.274780795 39638654.099213
142	229698 391 2531 3300 86 99 14 4.0343364698305 13.983295602682 164.39623531166 2081.6520469194
143	230089 383 2532 3300 87 99 13 -0.05294997824123 2.0824805266107 9.9489591328516 18.388156910207
144	230472 363 2532 3300 87 99 13 1.8495287503317 8.0447510818254 48.505789927808 240.48468781537
145	230835 331 2648 3300 88 99 12 2334.5638607559 2414.8836325099 28558.402747499 67973988.138939
146	231166 336 2648 3300 88 99 12 1578.4481442608 1661.0342117166 19324.453367747 31128678.987423
147	231502 307 2649 3300 89 99 11 4.0013211675714 13.999199340187 122.3732713828 1502.3440208439
148	231809 292 2770 3300 90 99 10 -0.037083219131455 2.1844902744796 9.9325013956959 19.042006626639
149	232101 280 2770 3300 90 99 10 1.9101876746331 8.6397759745869 42.359139706216 237.0435917464
150	232381 251 2771 3300 91 99 9 2359.4539213619 2414.8606245739 21528.006400216 51498036.428384
151	232632 252 2771 3300 91 99 9 1578.4565926548 1629.8750875536 14379.662004475 22977766.830962
152	232884 224 2900 3300 92 99 8 4.0929231651139 13.940859806718 81.585502839396 936.50499853663
153	233108 202 2901 3300 93 99 7 -0.032019207509006 2.0382161270757 9.8046405637881 19.408951358596
154	233310 193 2901 3300 93 99 7 1.9222012590366 8.880686804981 36.160597082549 229.42661146003
155	233503 167 3030 3300 94 99 6 2388.1195620884 2414.8345383538 14419.76341304 34655437.064571
156	233670 168 3030 3300 94 99 6 1578.4661713783 1600.8407426309 9520.2310114866 15106184.354948
157	233838 138 3031 3300 95 99 5 4.2052558286512 11.853042240334 39.811741515219 353.72310769508
158	233976 110 3162 3300 96 99 4 1.7976374135679 1.9856539367628 7.6477864116826 14.64688647321
159	234086 112 3162 3300 96 99 4 4.0201994287793 7.5078138857943 23.029092190229 139.49302948462
160	234198 84 3163 3300 97 99 3 2407.3710593774 2414.8810770222 7234.2675252345 17444904.269664
161	234282 84 3163 3300 97 99 3 1578.4490826223 1581.3416280663 4739.2920590574 7486967.3605854
162	234366 56 3299 3300 98 99 2 3.9195603011693 5.8047475024131 9.7243078035825 49.058046521274
163	234422 28 3300 3300 99 99 1 1.8851872012438 1.8851872012438 1.8851872012438 3.5539307837335
164	234450 28 3300 3300 99 99 1 4.0453611473868 4.0453611473868 4.0453611473868 16.364946812787

