version 2
run Default-0-20230823-08:19:34-3726
attr configname Default
attr datetime 20230823-08:19:34
attr experiment Default
attr inifile omnetpp.ini
attr iterationvars ""
attr iterationvarsf ""
attr measurement ""
attr network RSUExampleScenario
attr processid 3726
attr repetition 0
attr replication #0
attr resultdir results
attr runnumber 0
attr seedset 0
param *.playgroundSizeX 2500m
param *.playgroundSizeY 2500m
param *.playgroundSizeZ 50m
param *.annotations.draw true
param *.obstacles.obstacles "xmldoc(\"config.xml\", \"//AnalogueModel[@type='SimpleObstacleShadowing']/obstacles\")"
param *.manager.updateInterval 1s
param *.manager.host "\"localhost\""
param *.manager.port 9999
param *.manager.autoShutdown true
param *.manager.launchConfig "xmldoc(\"erlangen.launchd.xml\")"
param *.rsu[0].mobility.x 2000
param *.rsu[0].mobility.y 2000
param *.rsu[0].mobility.z 3
param *.rsu[*].applType "\"TraCIDemoRSU11p\""
param *.rsu[*].appl.headerLength "80 bit"
param *.rsu[*].appl.sendBeacons false
param *.rsu[*].appl.dataOnSch false
param *.rsu[*].appl.beaconInterval 1s
param *.rsu[*].appl.beaconUserPriority 7
param *.rsu[*].appl.dataUserPriority 5
param *.rsu[*].nic.phy80211p.antennaOffsetZ "0 m"
param *.connectionManager.sendDirect true
param *.connectionManager.maxInterfDist 2600m
param *.connectionManager.drawMaxIntfDist false
param *.**.nic.mac1609_4.useServiceChannel false
param *.**.nic.mac1609_4.txPower 20mW
param *.**.nic.mac1609_4.bitrate 6Mbps
param *.**.nic.phy80211p.minPowerLevel -110dBm
param *.**.nic.phy80211p.useNoiseFloor true
param *.**.nic.phy80211p.noiseFloor -98dBm
param *.**.nic.phy80211p.decider "xmldoc(\"config.xml\")"
param *.**.nic.phy80211p.analogueModels "xmldoc(\"config.xml\")"
param *.**.nic.phy80211p.usePropagationDelay true
param *.**.nic.phy80211p.antenna "xmldoc(\"antenna.xml\", \"/root/Antenna[@id='monopole']\")"
param *.node[*].nic.phy80211p.antennaOffsetY "0 m"
param *.node[*].nic.phy80211p.antennaOffsetZ "1.895 m"
param *.node[*].applType "\"TraCIDemo11p\""
param *.node[*].appl.headerLength "80 bit"
param *.node[*].appl.sendBeacons false
param *.node[*].appl.dataOnSch false
param *.node[*].appl.beaconInterval 1s
param *.node[*].veinsmobility.x 0
param *.node[*].veinsmobility.y 0
param *.node[*].veinsmobility.z 0
param *.node[*].veinsmobility.setHostSpeed false

scalar RSUExampleScenario.manager roiArea 0
scalar RSUExampleScenario.rsu[0].appl generatedWSMs 1
scalar RSUExampleScenario.rsu[0].appl receivedWSMs 0
scalar RSUExampleScenario.rsu[0].appl generatedBSMs 0
scalar RSUExampleScenario.rsu[0].appl receivedBSMs 0
scalar RSUExampleScenario.rsu[0].appl generatedWSAs 0
scalar RSUExampleScenario.rsu[0].appl receivedWSAs 0
scalar RSUExampleScenario.rsu[0].nic.phy80211p busyTime 0
scalar RSUExampleScenario.rsu[0].nic.mac1609_4 ReceivedUnicastPackets 0
scalar RSUExampleScenario.rsu[0].nic.mac1609_4 ReceivedBroadcasts 0
scalar RSUExampleScenario.rsu[0].nic.mac1609_4 SentPackets 1
scalar RSUExampleScenario.rsu[0].nic.mac1609_4 SentAcknowledgements 0
scalar RSUExampleScenario.rsu[0].nic.mac1609_4 RetriesExceeded 0
scalar RSUExampleScenario.rsu[0].nic.mac1609_4 SNIRLostPackets 0
scalar RSUExampleScenario.rsu[0].nic.mac1609_4 RXTXLostPackets 0
scalar RSUExampleScenario.rsu[0].nic.mac1609_4 TotalLostPackets 0
scalar RSUExampleScenario.rsu[0].nic.mac1609_4 DroppedPacketsInMac 0
scalar RSUExampleScenario.rsu[0].nic.mac1609_4 TooLittleTime 0
scalar RSUExampleScenario.rsu[0].nic.mac1609_4 TimesIntoBackoff 1
scalar RSUExampleScenario.rsu[0].nic.mac1609_4 SlotsBackoff 0
scalar RSUExampleScenario.rsu[0].nic.mac1609_4 NumInternalContention 0
scalar RSUExampleScenario.rsu[0].nic.mac1609_4 totalBusyTime 0.000233
scalar RSUExampleScenario.rsu[0].nic.mac1609_4 retriesExceeded:count 0
attr source org_car2x_veins_modules_mac_sigRetriesExceeded
scalar RSUExampleScenario.rsu[0].nic.mac1609_4 sentAcks:count 0
attr source org_car2x_veins_modules_mac_sigSentAck
scalar RSUExampleScenario.rsu[0].nic.mac1609_4 sentPackets:count 1
attr source org_car2x_veins_modules_mac_sigSentPacket
scalar RSUExampleScenario.rsu[0].nic.mac1609_4 collisions:count 0
attr source org_car2x_veins_modules_mac_sigCollision
scalar RSUExampleScenario.rsu[0].nic.mac1609_4 channelBusy:timeavg 2.4787234042553e-06
attr source org_car2x_veins_modules_mac_sigChannelBusy
scalar RSUExampleScenario.node[0].appl generatedWSMs 0
scalar RSUExampleScenario.node[0].appl receivedWSMs 1
scalar RSUExampleScenario.node[0].appl generatedBSMs 0
scalar RSUExampleScenario.node[0].appl receivedBSMs 0
scalar RSUExampleScenario.node[0].appl generatedWSAs 0
scalar RSUExampleScenario.node[0].appl receivedWSAs 0
scalar RSUExampleScenario.node[0].nic.phy80211p busyTime 2.494623655914e-06
scalar RSUExampleScenario.node[0].nic.mac1609_4 ReceivedUnicastPackets 0
scalar RSUExampleScenario.node[0].nic.mac1609_4 ReceivedBroadcasts 1
scalar RSUExampleScenario.node[0].nic.mac1609_4 SentPackets 0
scalar RSUExampleScenario.node[0].nic.mac1609_4 SentAcknowledgements 0
scalar RSUExampleScenario.node[0].nic.mac1609_4 RetriesExceeded 0
scalar RSUExampleScenario.node[0].nic.mac1609_4 SNIRLostPackets 0
scalar RSUExampleScenario.node[0].nic.mac1609_4 RXTXLostPackets 0
scalar RSUExampleScenario.node[0].nic.mac1609_4 TotalLostPackets 0
scalar RSUExampleScenario.node[0].nic.mac1609_4 DroppedPacketsInMac 0
scalar RSUExampleScenario.node[0].nic.mac1609_4 TooLittleTime 0
scalar RSUExampleScenario.node[0].nic.mac1609_4 TimesIntoBackoff 0
scalar RSUExampleScenario.node[0].nic.mac1609_4 SlotsBackoff 0
scalar RSUExampleScenario.node[0].nic.mac1609_4 NumInternalContention 0
scalar RSUExampleScenario.node[0].nic.mac1609_4 totalBusyTime 0.000232
scalar RSUExampleScenario.node[0].nic.mac1609_4 retriesExceeded:count 0
attr source org_car2x_veins_modules_mac_sigRetriesExceeded
scalar RSUExampleScenario.node[0].nic.mac1609_4 sentAcks:count 0
attr source org_car2x_veins_modules_mac_sigSentAck
scalar RSUExampleScenario.node[0].nic.mac1609_4 sentPackets:count 0
attr source org_car2x_veins_modules_mac_sigSentPacket
scalar RSUExampleScenario.node[0].nic.mac1609_4 collisions:count 0
attr source org_car2x_veins_modules_mac_sigCollision
scalar RSUExampleScenario.node[0].nic.mac1609_4 channelBusy:timeavg 2.494623655914e-06
attr source org_car2x_veins_modules_mac_sigChannelBusy
scalar RSUExampleScenario.node[0].veinsmobility startTime 1
scalar RSUExampleScenario.node[0].veinsmobility totalTime 93
scalar RSUExampleScenario.node[0].veinsmobility stopTime 94
scalar RSUExampleScenario.node[0].veinsmobility minSpeed 4.1061966058897
scalar RSUExampleScenario.node[0].veinsmobility maxSpeed 13.999815066161
scalar RSUExampleScenario.node[0].veinsmobility totalDistance 1215.9627457958
scalar RSUExampleScenario.node[0].veinsmobility totalCO2Emission 241.09167892156
scalar RSUExampleScenario.node[1].appl generatedWSMs 0
scalar RSUExampleScenario.node[1].appl receivedWSMs 1
scalar RSUExampleScenario.node[1].appl generatedBSMs 0
scalar RSUExampleScenario.node[1].appl receivedBSMs 0
scalar RSUExampleScenario.node[1].appl generatedWSAs 0
scalar RSUExampleScenario.node[1].appl receivedWSAs 0
scalar RSUExampleScenario.node[1].nic.phy80211p busyTime 2.5777777777778e-06
scalar RSUExampleScenario.node[1].nic.mac1609_4 ReceivedUnicastPackets 0
scalar RSUExampleScenario.node[1].nic.mac1609_4 ReceivedBroadcasts 1
scalar RSUExampleScenario.node[1].nic.mac1609_4 SentPackets 0
scalar RSUExampleScenario.node[1].nic.mac1609_4 SentAcknowledgements 0
scalar RSUExampleScenario.node[1].nic.mac1609_4 RetriesExceeded 0
scalar RSUExampleScenario.node[1].nic.mac1609_4 SNIRLostPackets 0
scalar RSUExampleScenario.node[1].nic.mac1609_4 RXTXLostPackets 0
scalar RSUExampleScenario.node[1].nic.mac1609_4 TotalLostPackets 0
scalar RSUExampleScenario.node[1].nic.mac1609_4 DroppedPacketsInMac 0
scalar RSUExampleScenario.node[1].nic.mac1609_4 TooLittleTime 0
scalar RSUExampleScenario.node[1].nic.mac1609_4 TimesIntoBackoff 0
scalar RSUExampleScenario.node[1].nic.mac1609_4 SlotsBackoff 0
scalar RSUExampleScenario.node[1].nic.mac1609_4 NumInternalContention 0
scalar RSUExampleScenario.node[1].nic.mac1609_4 totalBusyTime 0.000232
scalar RSUExampleScenario.node[1].nic.mac1609_4 retriesExceeded:count 0
attr source org_car2x_veins_modules_mac_sigRetriesExceeded
scalar RSUExampleScenario.node[1].nic.mac1609_4 sentAcks:count 0
attr source org_car2x_veins_modules_mac_sigSentAck
scalar RSUExampleScenario.node[1].nic.mac1609_4 sentPackets:count 0
attr source org_car2x_veins_modules_mac_sigSentPacket
scalar RSUExampleScenario.node[1].nic.mac1609_4 collisions:count 0
attr source org_car2x_veins_modules_mac_sigCollision
scalar RSUExampleScenario.node[1].nic.mac1609_4 channelBusy:timeavg 2.5777777777778e-06
attr source org_car2x_veins_modules_mac_sigChannelBusy
scalar RSUExampleScenario.node[1].veinsmobility startTime 4
scalar RSUExampleScenario.node[1].veinsmobility totalTime 90
scalar RSUExampleScenario.node[1].veinsmobility stopTime 94
scalar RSUExampleScenario.node[1].veinsmobility minSpeed 4.0332649588119
scalar RSUExampleScenario.node[1].veinsmobility maxSpeed 13.999323605334
scalar RSUExampleScenario.node[1].veinsmobility totalDistance 1170.5887535501
scalar RSUExampleScenario.node[1].veinsmobility totalCO2Emission 230.60658501921
scalar RSUExampleScenario.node[2].appl generatedWSMs 0
scalar RSUExampleScenario.node[2].appl receivedWSMs 1
scalar RSUExampleScenario.node[2].appl generatedBSMs 0
scalar RSUExampleScenario.node[2].appl receivedBSMs 0
scalar RSUExampleScenario.node[2].appl generatedWSAs 0
scalar RSUExampleScenario.node[2].appl receivedWSAs 0
scalar RSUExampleScenario.node[2].nic.phy80211p busyTime 2.6666666666667e-06
scalar RSUExampleScenario.node[2].nic.mac1609_4 ReceivedUnicastPackets 0
scalar RSUExampleScenario.node[2].nic.mac1609_4 ReceivedBroadcasts 1
scalar RSUExampleScenario.node[2].nic.mac1609_4 SentPackets 0
scalar RSUExampleScenario.node[2].nic.mac1609_4 SentAcknowledgements 0
scalar RSUExampleScenario.node[2].nic.mac1609_4 RetriesExceeded 0
scalar RSUExampleScenario.node[2].nic.mac1609_4 SNIRLostPackets 0
scalar RSUExampleScenario.node[2].nic.mac1609_4 RXTXLostPackets 0
scalar RSUExampleScenario.node[2].nic.mac1609_4 TotalLostPackets 0
scalar RSUExampleScenario.node[2].nic.mac1609_4 DroppedPacketsInMac 0
scalar RSUExampleScenario.node[2].nic.mac1609_4 TooLittleTime 0
scalar RSUExampleScenario.node[2].nic.mac1609_4 TimesIntoBackoff 0
scalar RSUExampleScenario.node[2].nic.mac1609_4 SlotsBackoff 0
scalar RSUExampleScenario.node[2].nic.mac1609_4 NumInternalContention 0
scalar RSUExampleScenario.node[2].nic.mac1609_4 totalBusyTime 0.000232
scalar RSUExampleScenario.node[2].nic.mac1609_4 retriesExceeded:count 0
attr source org_car2x_veins_modules_mac_sigRetriesExceeded
scalar RSUExampleScenario.node[2].nic.mac1609_4 sentAcks:count 0
attr source org_car2x_veins_modules_mac_sigSentAck
scalar RSUExampleScenario.node[2].nic.mac1609_4 sentPackets:count 0
attr source org_car2x_veins_modules_mac_sigSentPacket
scalar RSUExampleScenario.node[2].nic.mac1609_4 collisions:count 0
attr source org_car2x_veins_modules_mac_sigCollision
scalar RSUExampleScenario.node[2].nic.mac1609_4 channelBusy:timeavg 2.6666666666667e-06
attr source org_car2x_veins_modules_mac_sigChannelBusy
scalar RSUExampleScenario.node[2].veinsmobility startTime 7
scalar RSUExampleScenario.node[2].veinsmobility totalTime 87
scalar RSUExampleScenario.node[2].veinsmobility stopTime 94
scalar RSUExampleScenario.node[2].veinsmobility minSpeed 3.930963162637
scalar RSUExampleScenario.node[2].veinsmobility maxSpeed 13.997537077854
scalar RSUExampleScenario.node[2].veinsmobility totalDistance 1131.6004772171
scalar RSUExampleScenario.node[2].veinsmobility totalCO2Emission 224.70570957668
scalar RSUExampleScenario.node[3].appl generatedWSMs 0
scalar RSUExampleScenario.node[3].appl receivedWSMs 1
scalar RSUExampleScenario.node[3].appl generatedBSMs 0
scalar RSUExampleScenario.node[3].appl receivedBSMs 0
scalar RSUExampleScenario.node[3].appl generatedWSAs 0
scalar RSUExampleScenario.node[3].appl receivedWSAs 0
scalar RSUExampleScenario.node[3].nic.phy80211p busyTime 2.7619047619048e-06
scalar RSUExampleScenario.node[3].nic.mac1609_4 ReceivedUnicastPackets 0
scalar RSUExampleScenario.node[3].nic.mac1609_4 ReceivedBroadcasts 1
scalar RSUExampleScenario.node[3].nic.mac1609_4 SentPackets 0
scalar RSUExampleScenario.node[3].nic.mac1609_4 SentAcknowledgements 0
scalar RSUExampleScenario.node[3].nic.mac1609_4 RetriesExceeded 0
scalar RSUExampleScenario.node[3].nic.mac1609_4 SNIRLostPackets 0
scalar RSUExampleScenario.node[3].nic.mac1609_4 RXTXLostPackets 0
scalar RSUExampleScenario.node[3].nic.mac1609_4 TotalLostPackets 0
scalar RSUExampleScenario.node[3].nic.mac1609_4 DroppedPacketsInMac 0
scalar RSUExampleScenario.node[3].nic.mac1609_4 TooLittleTime 0
scalar RSUExampleScenario.node[3].nic.mac1609_4 TimesIntoBackoff 0
scalar RSUExampleScenario.node[3].nic.mac1609_4 SlotsBackoff 0
scalar RSUExampleScenario.node[3].nic.mac1609_4 NumInternalContention 0
scalar RSUExampleScenario.node[3].nic.mac1609_4 totalBusyTime 0.000232
scalar RSUExampleScenario.node[3].nic.mac1609_4 retriesExceeded:count 0
attr source org_car2x_veins_modules_mac_sigRetriesExceeded
scalar RSUExampleScenario.node[3].nic.mac1609_4 sentAcks:count 0
attr source org_car2x_veins_modules_mac_sigSentAck
scalar RSUExampleScenario.node[3].nic.mac1609_4 sentPackets:count 0
attr source org_car2x_veins_modules_mac_sigSentPacket
scalar RSUExampleScenario.node[3].nic.mac1609_4 collisions:count 0
attr source org_car2x_veins_modules_mac_sigCollision
scalar RSUExampleScenario.node[3].nic.mac1609_4 channelBusy:timeavg 2.7619047619048e-06
attr source org_car2x_veins_modules_mac_sigChannelBusy
scalar RSUExampleScenario.node[3].veinsmobility startTime 10
scalar RSUExampleScenario.node[3].veinsmobility totalTime 84
scalar RSUExampleScenario.node[3].veinsmobility stopTime 94
scalar RSUExampleScenario.node[3].veinsmobility minSpeed 4.0076977833542
scalar RSUExampleScenario.node[3].veinsmobility maxSpeed 13.999869057706
scalar RSUExampleScenario.node[3].veinsmobility totalDistance 1090.2233017862
scalar RSUExampleScenario.node[3].veinsmobility totalCO2Emission 221.32377675002
scalar RSUExampleScenario.node[4].appl generatedWSMs 0
scalar RSUExampleScenario.node[4].appl receivedWSMs 1
scalar RSUExampleScenario.node[4].appl generatedBSMs 0
scalar RSUExampleScenario.node[4].appl receivedBSMs 0
scalar RSUExampleScenario.node[4].appl generatedWSAs 0
scalar RSUExampleScenario.node[4].appl receivedWSAs 0
scalar RSUExampleScenario.node[4].nic.phy80211p busyTime 2.8641975308642e-06
scalar RSUExampleScenario.node[4].nic.mac1609_4 ReceivedUnicastPackets 0
scalar RSUExampleScenario.node[4].nic.mac1609_4 ReceivedBroadcasts 1
scalar RSUExampleScenario.node[4].nic.mac1609_4 SentPackets 0
scalar RSUExampleScenario.node[4].nic.mac1609_4 SentAcknowledgements 0
scalar RSUExampleScenario.node[4].nic.mac1609_4 RetriesExceeded 0
scalar RSUExampleScenario.node[4].nic.mac1609_4 SNIRLostPackets 0
scalar RSUExampleScenario.node[4].nic.mac1609_4 RXTXLostPackets 0
scalar RSUExampleScenario.node[4].nic.mac1609_4 TotalLostPackets 0
scalar RSUExampleScenario.node[4].nic.mac1609_4 DroppedPacketsInMac 0
scalar RSUExampleScenario.node[4].nic.mac1609_4 TooLittleTime 0
scalar RSUExampleScenario.node[4].nic.mac1609_4 TimesIntoBackoff 0
scalar RSUExampleScenario.node[4].nic.mac1609_4 SlotsBackoff 0
scalar RSUExampleScenario.node[4].nic.mac1609_4 NumInternalContention 0
scalar RSUExampleScenario.node[4].nic.mac1609_4 totalBusyTime 0.000232
scalar RSUExampleScenario.node[4].nic.mac1609_4 retriesExceeded:count 0
attr source org_car2x_veins_modules_mac_sigRetriesExceeded
scalar RSUExampleScenario.node[4].nic.mac1609_4 sentAcks:count 0
attr source org_car2x_veins_modules_mac_sigSentAck
scalar RSUExampleScenario.node[4].nic.mac1609_4 sentPackets:count 0
attr source org_car2x_veins_modules_mac_sigSentPacket
scalar RSUExampleScenario.node[4].nic.mac1609_4 collisions:count 0
attr source org_car2x_veins_modules_mac_sigCollision
scalar RSUExampleScenario.node[4].nic.mac1609_4 channelBusy:timeavg 2.8641975308642e-06
attr source org_car2x_veins_modules_mac_sigChannelBusy
scalar RSUExampleScenario.node[4].veinsmobility startTime 13
scalar RSUExampleScenario.node[4].veinsmobility totalTime 81
scalar RSUExampleScenario.node[4].veinsmobility stopTime 94
scalar RSUExampleScenario.node[4].veinsmobility minSpeed 4.1202440707026
scalar RSUExampleScenario.node[4].veinsmobility maxSpeed 13.992288785644
scalar RSUExampleScenario.node[4].veinsmobility totalDistance 1026.1997446416
scalar RSUExampleScenario.node[4].veinsmobility totalCO2Emission 209.21924544091
scalar RSUExampleScenario.node[5].appl generatedWSMs 0
scalar RSUExampleScenario.node[5].appl receivedWSMs 0
scalar RSUExampleScenario.node[5].appl generatedBSMs 0
scalar RSUExampleScenario.node[5].appl receivedBSMs 0
scalar RSUExampleScenario.node[5].appl generatedWSAs 0
scalar RSUExampleScenario.node[5].appl receivedWSAs 0
scalar RSUExampleScenario.node[5].nic.phy80211p busyTime 0
scalar RSUExampleScenario.node[5].nic.mac1609_4 ReceivedUnicastPackets 0
scalar RSUExampleScenario.node[5].nic.mac1609_4 ReceivedBroadcasts 0
scalar RSUExampleScenario.node[5].nic.mac1609_4 SentPackets 0
scalar RSUExampleScenario.node[5].nic.mac1609_4 SentAcknowledgements 0
scalar RSUExampleScenario.node[5].nic.mac1609_4 RetriesExceeded 0
scalar RSUExampleScenario.node[5].nic.mac1609_4 SNIRLostPackets 0
scalar RSUExampleScenario.node[5].nic.mac1609_4 RXTXLostPackets 0
scalar RSUExampleScenario.node[5].nic.mac1609_4 TotalLostPackets 0
scalar RSUExampleScenario.node[5].nic.mac1609_4 DroppedPacketsInMac 0
scalar RSUExampleScenario.node[5].nic.mac1609_4 TooLittleTime 0
scalar RSUExampleScenario.node[5].nic.mac1609_4 TimesIntoBackoff 0
scalar RSUExampleScenario.node[5].nic.mac1609_4 SlotsBackoff 0
scalar RSUExampleScenario.node[5].nic.mac1609_4 NumInternalContention 0
scalar RSUExampleScenario.node[5].nic.mac1609_4 totalBusyTime 0
scalar RSUExampleScenario.node[5].nic.mac1609_4 retriesExceeded:count 0
attr source org_car2x_veins_modules_mac_sigRetriesExceeded
scalar RSUExampleScenario.node[5].nic.mac1609_4 sentAcks:count 0
attr source org_car2x_veins_modules_mac_sigSentAck
scalar RSUExampleScenario.node[5].nic.mac1609_4 sentPackets:count 0
attr source org_car2x_veins_modules_mac_sigSentPacket
scalar RSUExampleScenario.node[5].nic.mac1609_4 collisions:count 0
attr source org_car2x_veins_modules_mac_sigCollision
scalar RSUExampleScenario.node[5].nic.mac1609_4 channelBusy:timeavg 0
attr source org_car2x_veins_modules_mac_sigChannelBusy
scalar RSUExampleScenario.node[5].veinsmobility startTime 16
scalar RSUExampleScenario.node[5].veinsmobility totalTime 78
scalar RSUExampleScenario.node[5].veinsmobility stopTime 94
scalar RSUExampleScenario.node[5].veinsmobility minSpeed 4.11254450365
scalar RSUExampleScenario.node[5].veinsmobility maxSpeed 13.998108282317
scalar RSUExampleScenario.node[5].veinsmobility totalDistance 992.43431003292
scalar RSUExampleScenario.node[5].veinsmobility totalCO2Emission 208.86663769622
scalar RSUExampleScenario.node[6].appl generatedWSMs 0
scalar RSUExampleScenario.node[6].appl receivedWSMs 0
scalar RSUExampleScenario.node[6].appl generatedBSMs 0
scalar RSUExampleScenario.node[6].appl receivedBSMs 0
scalar RSUExampleScenario.node[6].appl generatedWSAs 0
scalar RSUExampleScenario.node[6].appl receivedWSAs 0
scalar RSUExampleScenario.node[6].nic.phy80211p busyTime 0
scalar RSUExampleScenario.node[6].nic.mac1609_4 ReceivedUnicastPackets 0
scalar RSUExampleScenario.node[6].nic.mac1609_4 ReceivedBroadcasts 0
scalar RSUExampleScenario.node[6].nic.mac1609_4 SentPackets 0
scalar RSUExampleScenario.node[6].nic.mac1609_4 SentAcknowledgements 0
scalar RSUExampleScenario.node[6].nic.mac1609_4 RetriesExceeded 0
scalar RSUExampleScenario.node[6].nic.mac1609_4 SNIRLostPackets 0
scalar RSUExampleScenario.node[6].nic.mac1609_4 RXTXLostPackets 0
scalar RSUExampleScenario.node[6].nic.mac1609_4 TotalLostPackets 0
scalar RSUExampleScenario.node[6].nic.mac1609_4 DroppedPacketsInMac 0
scalar RSUExampleScenario.node[6].nic.mac1609_4 TooLittleTime 0
scalar RSUExampleScenario.node[6].nic.mac1609_4 TimesIntoBackoff 0
scalar RSUExampleScenario.node[6].nic.mac1609_4 SlotsBackoff 0
scalar RSUExampleScenario.node[6].nic.mac1609_4 NumInternalContention 0
scalar RSUExampleScenario.node[6].nic.mac1609_4 totalBusyTime 0
scalar RSUExampleScenario.node[6].nic.mac1609_4 retriesExceeded:count 0
attr source org_car2x_veins_modules_mac_sigRetriesExceeded
scalar RSUExampleScenario.node[6].nic.mac1609_4 sentAcks:count 0
attr source org_car2x_veins_modules_mac_sigSentAck
scalar RSUExampleScenario.node[6].nic.mac1609_4 sentPackets:count 0
attr source org_car2x_veins_modules_mac_sigSentPacket
scalar RSUExampleScenario.node[6].nic.mac1609_4 collisions:count 0
attr source org_car2x_veins_modules_mac_sigCollision
scalar RSUExampleScenario.node[6].nic.mac1609_4 channelBusy:timeavg 0
attr source org_car2x_veins_modules_mac_sigChannelBusy
scalar RSUExampleScenario.node[6].veinsmobility startTime 19
scalar RSUExampleScenario.node[6].veinsmobility totalTime 75
scalar RSUExampleScenario.node[6].veinsmobility stopTime 94
scalar RSUExampleScenario.node[6].veinsmobility minSpeed 4.067372106413
scalar RSUExampleScenario.node[6].veinsmobility maxSpeed 13.999156328384
scalar RSUExampleScenario.node[6].veinsmobility totalDistance 956.38995789652
scalar RSUExampleScenario.node[6].veinsmobility totalCO2Emission 190.53776830634
scalar RSUExampleScenario.node[7].appl generatedWSMs 0
scalar RSUExampleScenario.node[7].appl receivedWSMs 0
scalar RSUExampleScenario.node[7].appl generatedBSMs 0
scalar RSUExampleScenario.node[7].appl receivedBSMs 0
scalar RSUExampleScenario.node[7].appl generatedWSAs 0
scalar RSUExampleScenario.node[7].appl receivedWSAs 0
scalar RSUExampleScenario.node[7].nic.phy80211p busyTime 0
scalar RSUExampleScenario.node[7].nic.mac1609_4 ReceivedUnicastPackets 0
scalar RSUExampleScenario.node[7].nic.mac1609_4 ReceivedBroadcasts 0
scalar RSUExampleScenario.node[7].nic.mac1609_4 SentPackets 0
scalar RSUExampleScenario.node[7].nic.mac1609_4 SentAcknowledgements 0
scalar RSUExampleScenario.node[7].nic.mac1609_4 RetriesExceeded 0
scalar RSUExampleScenario.node[7].nic.mac1609_4 SNIRLostPackets 0
scalar RSUExampleScenario.node[7].nic.mac1609_4 RXTXLostPackets 0
scalar RSUExampleScenario.node[7].nic.mac1609_4 TotalLostPackets 0
scalar RSUExampleScenario.node[7].nic.mac1609_4 DroppedPacketsInMac 0
scalar RSUExampleScenario.node[7].nic.mac1609_4 TooLittleTime 0
scalar RSUExampleScenario.node[7].nic.mac1609_4 TimesIntoBackoff 0
scalar RSUExampleScenario.node[7].nic.mac1609_4 SlotsBackoff 0
scalar RSUExampleScenario.node[7].nic.mac1609_4 NumInternalContention 0
scalar RSUExampleScenario.node[7].nic.mac1609_4 totalBusyTime 0
scalar RSUExampleScenario.node[7].nic.mac1609_4 retriesExceeded:count 0
attr source org_car2x_veins_modules_mac_sigRetriesExceeded
scalar RSUExampleScenario.node[7].nic.mac1609_4 sentAcks:count 0
attr source org_car2x_veins_modules_mac_sigSentAck
scalar RSUExampleScenario.node[7].nic.mac1609_4 sentPackets:count 0
attr source org_car2x_veins_modules_mac_sigSentPacket
scalar RSUExampleScenario.node[7].nic.mac1609_4 collisions:count 0
attr source org_car2x_veins_modules_mac_sigCollision
scalar RSUExampleScenario.node[7].nic.mac1609_4 channelBusy:timeavg 0
attr source org_car2x_veins_modules_mac_sigChannelBusy
scalar RSUExampleScenario.node[7].veinsmobility startTime 22
scalar RSUExampleScenario.node[7].veinsmobility totalTime 72
scalar RSUExampleScenario.node[7].veinsmobility stopTime 94
scalar RSUExampleScenario.node[7].veinsmobility minSpeed 4.0608742667126
scalar RSUExampleScenario.node[7].veinsmobility maxSpeed 13.999091608806
scalar RSUExampleScenario.node[7].veinsmobility totalDistance 855.64580120048
scalar RSUExampleScenario.node[7].veinsmobility totalCO2Emission 165.1913423242
scalar RSUExampleScenario.node[8].appl generatedWSMs 0
scalar RSUExampleScenario.node[8].appl receivedWSMs 0
scalar RSUExampleScenario.node[8].appl generatedBSMs 0
scalar RSUExampleScenario.node[8].appl receivedBSMs 0
scalar RSUExampleScenario.node[8].appl generatedWSAs 0
scalar RSUExampleScenario.node[8].appl receivedWSAs 0
scalar RSUExampleScenario.node[8].nic.phy80211p busyTime 0
scalar RSUExampleScenario.node[8].nic.mac1609_4 ReceivedUnicastPackets 0
scalar RSUExampleScenario.node[8].nic.mac1609_4 ReceivedBroadcasts 0
scalar RSUExampleScenario.node[8].nic.mac1609_4 SentPackets 0
scalar RSUExampleScenario.node[8].nic.mac1609_4 SentAcknowledgements 0
scalar RSUExampleScenario.node[8].nic.mac1609_4 RetriesExceeded 0
scalar RSUExampleScenario.node[8].nic.mac1609_4 SNIRLostPackets 0
scalar RSUExampleScenario.node[8].nic.mac1609_4 RXTXLostPackets 0
scalar RSUExampleScenario.node[8].nic.mac1609_4 TotalLostPackets 0
scalar RSUExampleScenario.node[8].nic.mac1609_4 DroppedPacketsInMac 0
scalar RSUExampleScenario.node[8].nic.mac1609_4 TooLittleTime 0
scalar RSUExampleScenario.node[8].nic.mac1609_4 TimesIntoBackoff 0
scalar RSUExampleScenario.node[8].nic.mac1609_4 SlotsBackoff 0
scalar RSUExampleScenario.node[8].nic.mac1609_4 NumInternalContention 0
scalar RSUExampleScenario.node[8].nic.mac1609_4 totalBusyTime 0
scalar RSUExampleScenario.node[8].nic.mac1609_4 retriesExceeded:count 0
attr source org_car2x_veins_modules_mac_sigRetriesExceeded
scalar RSUExampleScenario.node[8].nic.mac1609_4 sentAcks:count 0
attr source org_car2x_veins_modules_mac_sigSentAck
scalar RSUExampleScenario.node[8].nic.mac1609_4 sentPackets:count 0
attr source org_car2x_veins_modules_mac_sigSentPacket
scalar RSUExampleScenario.node[8].nic.mac1609_4 collisions:count 0
attr source org_car2x_veins_modules_mac_sigCollision
scalar RSUExampleScenario.node[8].nic.mac1609_4 channelBusy:timeavg 0
attr source org_car2x_veins_modules_mac_sigChannelBusy
scalar RSUExampleScenario.node[8].veinsmobility startTime 25
scalar RSUExampleScenario.node[8].veinsmobility totalTime 69
scalar RSUExampleScenario.node[8].veinsmobility stopTime 94
scalar RSUExampleScenario.node[8].veinsmobility minSpeed 4.0643546214392
scalar RSUExampleScenario.node[8].veinsmobility maxSpeed 13.964093556602
scalar RSUExampleScenario.node[8].veinsmobility totalDistance 836.22931434969
scalar RSUExampleScenario.node[8].veinsmobility totalCO2Emission 165.49763063952
scalar RSUExampleScenario.node[9].appl generatedWSMs 0
scalar RSUExampleScenario.node[9].appl receivedWSMs 0
scalar RSUExampleScenario.node[9].appl generatedBSMs 0
scalar RSUExampleScenario.node[9].appl receivedBSMs 0
scalar RSUExampleScenario.node[9].appl generatedWSAs 0
scalar RSUExampleScenario.node[9].appl receivedWSAs 0
scalar RSUExampleScenario.node[9].nic.phy80211p busyTime 0
scalar RSUExampleScenario.node[9].nic.mac1609_4 ReceivedUnicastPackets 0
scalar RSUExampleScenario.node[9].nic.mac1609_4 ReceivedBroadcasts 0
scalar RSUExampleScenario.node[9].nic.mac1609_4 SentPackets 0
scalar RSUExampleScenario.node[9].nic.mac1609_4 SentAcknowledgements 0
scalar RSUExampleScenario.node[9].nic.mac1609_4 RetriesExceeded 0
scalar RSUExampleScenario.node[9].nic.mac1609_4 SNIRLostPackets 0
scalar RSUExampleScenario.node[9].nic.mac1609_4 RXTXLostPackets 0
scalar RSUExampleScenario.node[9].nic.mac1609_4 TotalLostPackets 0
scalar RSUExampleScenario.node[9].nic.mac1609_4 DroppedPacketsInMac 0
scalar RSUExampleScenario.node[9].nic.mac1609_4 TooLittleTime 0
scalar RSUExampleScenario.node[9].nic.mac1609_4 TimesIntoBackoff 0
scalar RSUExampleScenario.node[9].nic.mac1609_4 SlotsBackoff 0
scalar RSUExampleScenario.node[9].nic.mac1609_4 NumInternalContention 0
scalar RSUExampleScenario.node[9].nic.mac1609_4 totalBusyTime 0
scalar RSUExampleScenario.node[9].nic.mac1609_4 retriesExceeded:count 0
attr source org_car2x_veins_modules_mac_sigRetriesExceeded
scalar RSUExampleScenario.node[9].nic.mac1609_4 sentAcks:count 0
attr source org_car2x_veins_modules_mac_sigSentAck
scalar RSUExampleScenario.node[9].nic.mac1609_4 sentPackets:count 0
attr source org_car2x_veins_modules_mac_sigSentPacket
scalar RSUExampleScenario.node[9].nic.mac1609_4 collisions:count 0
attr source org_car2x_veins_modules_mac_sigCollision
scalar RSUExampleScenario.node[9].nic.mac1609_4 channelBusy:timeavg 0
attr source org_car2x_veins_modules_mac_sigChannelBusy
scalar RSUExampleScenario.node[9].veinsmobility startTime 28
scalar RSUExampleScenario.node[9].veinsmobility totalTime 66
scalar RSUExampleScenario.node[9].veinsmobility stopTime 94
scalar RSUExampleScenario.node[9].veinsmobility minSpeed 3.8828872453123
scalar RSUExampleScenario.node[9].veinsmobility maxSpeed 13.97994910137
scalar RSUExampleScenario.node[9].veinsmobility totalDistance 815.87906542256
scalar RSUExampleScenario.node[9].veinsmobility totalCO2Emission 163.95421209317
scalar RSUExampleScenario.node[10].appl generatedWSMs 0
scalar RSUExampleScenario.node[10].appl receivedWSMs 0
scalar RSUExampleScenario.node[10].appl generatedBSMs 0
scalar RSUExampleScenario.node[10].appl receivedBSMs 0
scalar RSUExampleScenario.node[10].appl generatedWSAs 0
scalar RSUExampleScenario.node[10].appl receivedWSAs 0
scalar RSUExampleScenario.node[10].nic.phy80211p busyTime 0
scalar RSUExampleScenario.node[10].nic.mac1609_4 ReceivedUnicastPackets 0
scalar RSUExampleScenario.node[10].nic.mac1609_4 ReceivedBroadcasts 0
scalar RSUExampleScenario.node[10].nic.mac1609_4 SentPackets 0
scalar RSUExampleScenario.node[10].nic.mac1609_4 SentAcknowledgements 0
scalar RSUExampleScenario.node[10].nic.mac1609_4 RetriesExceeded 0
scalar RSUExampleScenario.node[10].nic.mac1609_4 SNIRLostPackets 0
scalar RSUExampleScenario.node[10].nic.mac1609_4 RXTXLostPackets 0
scalar RSUExampleScenario.node[10].nic.mac1609_4 TotalLostPackets 0
scalar RSUExampleScenario.node[10].nic.mac1609_4 DroppedPacketsInMac 0
scalar RSUExampleScenario.node[10].nic.mac1609_4 TooLittleTime 0
scalar RSUExampleScenario.node[10].nic.mac1609_4 TimesIntoBackoff 0
scalar RSUExampleScenario.node[10].nic.mac1609_4 SlotsBackoff 0
scalar RSUExampleScenario.node[10].nic.mac1609_4 NumInternalContention 0
scalar RSUExampleScenario.node[10].nic.mac1609_4 totalBusyTime 0
scalar RSUExampleScenario.node[10].nic.mac1609_4 retriesExceeded:count 0
attr source org_car2x_veins_modules_mac_sigRetriesExceeded
scalar RSUExampleScenario.node[10].nic.mac1609_4 sentAcks:count 0
attr source org_car2x_veins_modules_mac_sigSentAck
scalar RSUExampleScenario.node[10].nic.mac1609_4 sentPackets:count 0
attr source org_car2x_veins_modules_mac_sigSentPacket
scalar RSUExampleScenario.node[10].nic.mac1609_4 collisions:count 0
attr source org_car2x_veins_modules_mac_sigCollision
scalar RSUExampleScenario.node[10].nic.mac1609_4 channelBusy:timeavg 0
attr source org_car2x_veins_modules_mac_sigChannelBusy
scalar RSUExampleScenario.node[10].veinsmobility startTime 31
scalar RSUExampleScenario.node[10].veinsmobility totalTime 63
scalar RSUExampleScenario.node[10].veinsmobility stopTime 94
scalar RSUExampleScenario.node[10].veinsmobility minSpeed 4.1947202222332
scalar RSUExampleScenario.node[10].veinsmobility maxSpeed 13.991812187003
scalar RSUExampleScenario.node[10].veinsmobility totalDistance 797.49187108984
scalar RSUExampleScenario.node[10].veinsmobility totalCO2Emission 162.61609919276
scalar RSUExampleScenario.node[11].appl generatedWSMs 0
scalar RSUExampleScenario.node[11].appl receivedWSMs 0
scalar RSUExampleScenario.node[11].appl generatedBSMs 0
scalar RSUExampleScenario.node[11].appl receivedBSMs 0
scalar RSUExampleScenario.node[11].appl generatedWSAs 0
scalar RSUExampleScenario.node[11].appl receivedWSAs 0
scalar RSUExampleScenario.node[11].nic.phy80211p busyTime 0
scalar RSUExampleScenario.node[11].nic.mac1609_4 ReceivedUnicastPackets 0
scalar RSUExampleScenario.node[11].nic.mac1609_4 ReceivedBroadcasts 0
scalar RSUExampleScenario.node[11].nic.mac1609_4 SentPackets 0
scalar RSUExampleScenario.node[11].nic.mac1609_4 SentAcknowledgements 0
scalar RSUExampleScenario.node[11].nic.mac1609_4 RetriesExceeded 0
scalar RSUExampleScenario.node[11].nic.mac1609_4 SNIRLostPackets 0
scalar RSUExampleScenario.node[11].nic.mac1609_4 RXTXLostPackets 0
scalar RSUExampleScenario.node[11].nic.mac1609_4 TotalLostPackets 0
scalar RSUExampleScenario.node[11].nic.mac1609_4 DroppedPacketsInMac 0
scalar RSUExampleScenario.node[11].nic.mac1609_4 TooLittleTime 0
scalar RSUExampleScenario.node[11].nic.mac1609_4 TimesIntoBackoff 0
scalar RSUExampleScenario.node[11].nic.mac1609_4 SlotsBackoff 0
scalar RSUExampleScenario.node[11].nic.mac1609_4 NumInternalContention 0
scalar RSUExampleScenario.node[11].nic.mac1609_4 totalBusyTime 0
scalar RSUExampleScenario.node[11].nic.mac1609_4 retriesExceeded:count 0
attr source org_car2x_veins_modules_mac_sigRetriesExceeded
scalar RSUExampleScenario.node[11].nic.mac1609_4 sentAcks:count 0
attr source org_car2x_veins_modules_mac_sigSentAck
scalar RSUExampleScenario.node[11].nic.mac1609_4 sentPackets:count 0
attr source org_car2x_veins_modules_mac_sigSentPacket
scalar RSUExampleScenario.node[11].nic.mac1609_4 collisions:count 0
attr source org_car2x_veins_modules_mac_sigCollision
scalar RSUExampleScenario.node[11].nic.mac1609_4 channelBusy:timeavg 0
attr source org_car2x_veins_modules_mac_sigChannelBusy
scalar RSUExampleScenario.node[11].veinsmobility startTime 34
scalar RSUExampleScenario.node[11].veinsmobility totalTime 60
scalar RSUExampleScenario.node[11].veinsmobility stopTime 94
scalar RSUExampleScenario.node[11].veinsmobility minSpeed 3.8489417596173
scalar RSUExampleScenario.node[11].veinsmobility maxSpeed 13.985598736692
scalar RSUExampleScenario.node[11].veinsmobility totalDistance 769.04806644986
scalar RSUExampleScenario.node[11].veinsmobility totalCO2Emission 154.51739595113
scalar RSUExampleScenario.node[12].appl generatedWSMs 0
scalar RSUExampleScenario.node[12].appl receivedWSMs 0
scalar RSUExampleScenario.node[12].appl generatedBSMs 0
scalar RSUExampleScenario.node[12].appl receivedBSMs 0
scalar RSUExampleScenario.node[12].appl generatedWSAs 0
scalar RSUExampleScenario.node[12].appl receivedWSAs 0
scalar RSUExampleScenario.node[12].nic.phy80211p busyTime 0
scalar RSUExampleScenario.node[12].nic.mac1609_4 ReceivedUnicastPackets 0
scalar RSUExampleScenario.node[12].nic.mac1609_4 ReceivedBroadcasts 0
scalar RSUExampleScenario.node[12].nic.mac1609_4 SentPackets 0
scalar RSUExampleScenario.node[12].nic.mac1609_4 SentAcknowledgements 0
scalar RSUExampleScenario.node[12].nic.mac1609_4 RetriesExceeded 0
scalar RSUExampleScenario.node[12].nic.mac1609_4 SNIRLostPackets 0
scalar RSUExampleScenario.node[12].nic.mac1609_4 RXTXLostPackets 0
scalar RSUExampleScenario.node[12].nic.mac1609_4 TotalLostPackets 0
scalar RSUExampleScenario.node[12].nic.mac1609_4 DroppedPacketsInMac 0
scalar RSUExampleScenario.node[12].nic.mac1609_4 TooLittleTime 0
scalar RSUExampleScenario.node[12].nic.mac1609_4 TimesIntoBackoff 0
scalar RSUExampleScenario.node[12].nic.mac1609_4 SlotsBackoff 0
scalar RSUExampleScenario.node[12].nic.mac1609_4 NumInternalContention 0
scalar RSUExampleScenario.node[12].nic.mac1609_4 totalBusyTime 0
scalar RSUExampleScenario.node[12].nic.mac1609_4 retriesExceeded:count 0
attr source org_car2x_veins_modules_mac_sigRetriesExceeded
scalar RSUExampleScenario.node[12].nic.mac1609_4 sentAcks:count 0
attr source org_car2x_veins_modules_mac_sigSentAck
scalar RSUExampleScenario.node[12].nic.mac1609_4 sentPackets:count 0
attr source org_car2x_veins_modules_mac_sigSentPacket
scalar RSUExampleScenario.node[12].nic.mac1609_4 collisions:count 0
attr source org_car2x_veins_modules_mac_sigCollision
scalar RSUExampleScenario.node[12].nic.mac1609_4 channelBusy:timeavg 0
attr source org_car2x_veins_modules_mac_sigChannelBusy
scalar RSUExampleScenario.node[12].veinsmobility startTime 37
scalar RSUExampleScenario.node[12].veinsmobility totalTime 57
scalar RSUExampleScenario.node[12].veinsmobility stopTime 94
scalar RSUExampleScenario.node[12].veinsmobility minSpeed 3.9219617499206
scalar RSUExampleScenario.node[12].veinsmobility maxSpeed 13.999378900521
scalar RSUExampleScenario.node[12].veinsmobility totalDistance 721.1749199114
scalar RSUExampleScenario.node[12].veinsmobility totalCO2Emission 146.68314701748
scalar RSUExampleScenario.node[13].appl generatedWSMs 0
scalar RSUExampleScenario.node[13].appl receivedWSMs 0
scalar RSUExampleScenario.node[13].appl generatedBSMs 0
scalar RSUExampleScenario.node[13].appl receivedBSMs 0
scalar RSUExampleScenario.node[13].appl generatedWSAs 0
scalar RSUExampleScenario.node[13].appl receivedWSAs 0
scalar RSUExampleScenario.node[13].nic.phy80211p busyTime 0
scalar RSUExampleScenario.node[13].nic.mac1609_4 ReceivedUnicastPackets 0
scalar RSUExampleScenario.node[13].nic.mac1609_4 ReceivedBroadcasts 0
scalar RSUExampleScenario.node[13].nic.mac1609_4 SentPackets 0
scalar RSUExampleScenario.node[13].nic.mac1609_4 SentAcknowledgements 0
scalar RSUExampleScenario.node[13].nic.mac1609_4 RetriesExceeded 0
scalar RSUExampleScenario.node[13].nic.mac1609_4 SNIRLostPackets 0
scalar RSUExampleScenario.node[13].nic.mac1609_4 RXTXLostPackets 0
scalar RSUExampleScenario.node[13].nic.mac1609_4 TotalLostPackets 0
scalar RSUExampleScenario.node[13].nic.mac1609_4 DroppedPacketsInMac 0
scalar RSUExampleScenario.node[13].nic.mac1609_4 TooLittleTime 0
scalar RSUExampleScenario.node[13].nic.mac1609_4 TimesIntoBackoff 0
scalar RSUExampleScenario.node[13].nic.mac1609_4 SlotsBackoff 0
scalar RSUExampleScenario.node[13].nic.mac1609_4 NumInternalContention 0
scalar RSUExampleScenario.node[13].nic.mac1609_4 totalBusyTime 0
scalar RSUExampleScenario.node[13].nic.mac1609_4 retriesExceeded:count 0
attr source org_car2x_veins_modules_mac_sigRetriesExceeded
scalar RSUExampleScenario.node[13].nic.mac1609_4 sentAcks:count 0
attr source org_car2x_veins_modules_mac_sigSentAck
scalar RSUExampleScenario.node[13].nic.mac1609_4 sentPackets:count 0
attr source org_car2x_veins_modules_mac_sigSentPacket
scalar RSUExampleScenario.node[13].nic.mac1609_4 collisions:count 0
attr source org_car2x_veins_modules_mac_sigCollision
scalar RSUExampleScenario.node[13].nic.mac1609_4 channelBusy:timeavg 0
attr source org_car2x_veins_modules_mac_sigChannelBusy
scalar RSUExampleScenario.node[13].veinsmobility startTime 40
scalar RSUExampleScenario.node[13].veinsmobility totalTime 54
scalar RSUExampleScenario.node[13].veinsmobility stopTime 94
scalar RSUExampleScenario.node[13].veinsmobility minSpeed 4.0161385181755
scalar RSUExampleScenario.node[13].veinsmobility maxSpeed 13.998249822583
scalar RSUExampleScenario.node[13].veinsmobility totalDistance 685.55280748084
scalar RSUExampleScenario.node[13].veinsmobility totalCO2Emission 141.93258330716
scalar RSUExampleScenario.node[14].appl generatedWSMs 0
scalar RSUExampleScenario.node[14].appl receivedWSMs 0
scalar RSUExampleScenario.node[14].appl generatedBSMs 0
scalar RSUExampleScenario.node[14].appl receivedBSMs 0
scalar RSUExampleScenario.node[14].appl generatedWSAs 0
scalar RSUExampleScenario.node[14].appl receivedWSAs 0
scalar RSUExampleScenario.node[14].nic.phy80211p busyTime 0
scalar RSUExampleScenario.node[14].nic.mac1609_4 ReceivedUnicastPackets 0
scalar RSUExampleScenario.node[14].nic.mac1609_4 ReceivedBroadcasts 0
scalar RSUExampleScenario.node[14].nic.mac1609_4 SentPackets 0
scalar RSUExampleScenario.node[14].nic.mac1609_4 SentAcknowledgements 0
scalar RSUExampleScenario.node[14].nic.mac1609_4 RetriesExceeded 0
scalar RSUExampleScenario.node[14].nic.mac1609_4 SNIRLostPackets 0
scalar RSUExampleScenario.node[14].nic.mac1609_4 RXTXLostPackets 0
scalar RSUExampleScenario.node[14].nic.mac1609_4 TotalLostPackets 0
scalar RSUExampleScenario.node[14].nic.mac1609_4 DroppedPacketsInMac 0
scalar RSUExampleScenario.node[14].nic.mac1609_4 TooLittleTime 0
scalar RSUExampleScenario.node[14].nic.mac1609_4 TimesIntoBackoff 0
scalar RSUExampleScenario.node[14].nic.mac1609_4 SlotsBackoff 0
scalar RSUExampleScenario.node[14].nic.mac1609_4 NumInternalContention 0
scalar RSUExampleScenario.node[14].nic.mac1609_4 totalBusyTime 0
scalar RSUExampleScenario.node[14].nic.mac1609_4 retriesExceeded:count 0
attr source org_car2x_veins_modules_mac_sigRetriesExceeded
scalar RSUExampleScenario.node[14].nic.mac1609_4 sentAcks:count 0
attr source org_car2x_veins_modules_mac_sigSentAck
scalar RSUExampleScenario.node[14].nic.mac1609_4 sentPackets:count 0
attr source org_car2x_veins_modules_mac_sigSentPacket
scalar RSUExampleScenario.node[14].nic.mac1609_4 collisions:count 0
attr source org_car2x_veins_modules_mac_sigCollision
scalar RSUExampleScenario.node[14].nic.mac1609_4 channelBusy:timeavg 0
attr source org_car2x_veins_modules_mac_sigChannelBusy
scalar RSUExampleScenario.node[14].veinsmobility startTime 43
scalar RSUExampleScenario.node[14].veinsmobility totalTime 51
scalar RSUExampleScenario.node[14].veinsmobility stopTime 94
scalar RSUExampleScenario.node[14].veinsmobility minSpeed 3.9992962979057
scalar RSUExampleScenario.node[14].veinsmobility maxSpeed 13.999124200887
scalar RSUExampleScenario.node[14].veinsmobility totalDistance 649.97561946417
scalar RSUExampleScenario.node[14].veinsmobility totalCO2Emission 138.37251284621
scalar RSUExampleScenario.node[15].appl generatedWSMs 0
scalar RSUExampleScenario.node[15].appl receivedWSMs 0
scalar RSUExampleScenario.node[15].appl generatedBSMs 0
scalar RSUExampleScenario.node[15].appl receivedBSMs 0
scalar RSUExampleScenario.node[15].appl generatedWSAs 0
scalar RSUExampleScenario.node[15].appl receivedWSAs 0
scalar RSUExampleScenario.node[15].nic.phy80211p busyTime 0
scalar RSUExampleScenario.node[15].nic.mac1609_4 ReceivedUnicastPackets 0
scalar RSUExampleScenario.node[15].nic.mac1609_4 ReceivedBroadcasts 0
scalar RSUExampleScenario.node[15].nic.mac1609_4 SentPackets 0
scalar RSUExampleScenario.node[15].nic.mac1609_4 SentAcknowledgements 0
scalar RSUExampleScenario.node[15].nic.mac1609_4 RetriesExceeded 0
scalar RSUExampleScenario.node[15].nic.mac1609_4 SNIRLostPackets 0
scalar RSUExampleScenario.node[15].nic.mac1609_4 RXTXLostPackets 0
scalar RSUExampleScenario.node[15].nic.mac1609_4 TotalLostPackets 0
scalar RSUExampleScenario.node[15].nic.mac1609_4 DroppedPacketsInMac 0
scalar RSUExampleScenario.node[15].nic.mac1609_4 TooLittleTime 0
scalar RSUExampleScenario.node[15].nic.mac1609_4 TimesIntoBackoff 0
scalar RSUExampleScenario.node[15].nic.mac1609_4 SlotsBackoff 0
scalar RSUExampleScenario.node[15].nic.mac1609_4 NumInternalContention 0
scalar RSUExampleScenario.node[15].nic.mac1609_4 totalBusyTime 0
scalar RSUExampleScenario.node[15].nic.mac1609_4 retriesExceeded:count 0
attr source org_car2x_veins_modules_mac_sigRetriesExceeded
scalar RSUExampleScenario.node[15].nic.mac1609_4 sentAcks:count 0
attr source org_car2x_veins_modules_mac_sigSentAck
scalar RSUExampleScenario.node[15].nic.mac1609_4 sentPackets:count 0
attr source org_car2x_veins_modules_mac_sigSentPacket
scalar RSUExampleScenario.node[15].nic.mac1609_4 collisions:count 0
attr source org_car2x_veins_modules_mac_sigCollision
scalar RSUExampleScenario.node[15].nic.mac1609_4 channelBusy:timeavg 0
attr source org_car2x_veins_modules_mac_sigChannelBusy
scalar RSUExampleScenario.node[15].veinsmobility startTime 46
scalar RSUExampleScenario.node[15].veinsmobility totalTime 48
scalar RSUExampleScenario.node[15].veinsmobility stopTime 94
scalar RSUExampleScenario.node[15].veinsmobility minSpeed 4.1510441398274
scalar RSUExampleScenario.node[15].veinsmobility maxSpeed 13.996701665553
scalar RSUExampleScenario.node[15].veinsmobility totalDistance 608.92241957929
scalar RSUExampleScenario.node[15].veinsmobility totalCO2Emission 131.70277676264
scalar RSUExampleScenario.node[16].appl generatedWSMs 0
scalar RSUExampleScenario.node[16].appl receivedWSMs 0
scalar RSUExampleScenario.node[16].appl generatedBSMs 0
scalar RSUExampleScenario.node[16].appl receivedBSMs 0
scalar RSUExampleScenario.node[16].appl generatedWSAs 0
scalar RSUExampleScenario.node[16].appl receivedWSAs 0
scalar RSUExampleScenario.node[16].nic.phy80211p busyTime 0
scalar RSUExampleScenario.node[16].nic.mac1609_4 ReceivedUnicastPackets 0
scalar RSUExampleScenario.node[16].nic.mac1609_4 ReceivedBroadcasts 0
scalar RSUExampleScenario.node[16].nic.mac1609_4 SentPackets 0
scalar RSUExampleScenario.node[16].nic.mac1609_4 SentAcknowledgements 0
scalar RSUExampleScenario.node[16].nic.mac1609_4 RetriesExceeded 0
scalar RSUExampleScenario.node[16].nic.mac1609_4 SNIRLostPackets 0
scalar RSUExampleScenario.node[16].nic.mac1609_4 RXTXLostPackets 0
scalar RSUExampleScenario.node[16].nic.mac1609_4 TotalLostPackets 0
scalar RSUExampleScenario.node[16].nic.mac1609_4 DroppedPacketsInMac 0
scalar RSUExampleScenario.node[16].nic.mac1609_4 TooLittleTime 0
scalar RSUExampleScenario.node[16].nic.mac1609_4 TimesIntoBackoff 0
scalar RSUExampleScenario.node[16].nic.mac1609_4 SlotsBackoff 0
scalar RSUExampleScenario.node[16].nic.mac1609_4 NumInternalContention 0
scalar RSUExampleScenario.node[16].nic.mac1609_4 totalBusyTime 0
scalar RSUExampleScenario.node[16].nic.mac1609_4 retriesExceeded:count 0
attr source org_car2x_veins_modules_mac_sigRetriesExceeded
scalar RSUExampleScenario.node[16].nic.mac1609_4 sentAcks:count 0
attr source org_car2x_veins_modules_mac_sigSentAck
scalar RSUExampleScenario.node[16].nic.mac1609_4 sentPackets:count 0
attr source org_car2x_veins_modules_mac_sigSentPacket
scalar RSUExampleScenario.node[16].nic.mac1609_4 collisions:count 0
attr source org_car2x_veins_modules_mac_sigCollision
scalar RSUExampleScenario.node[16].nic.mac1609_4 channelBusy:timeavg 0
attr source org_car2x_veins_modules_mac_sigChannelBusy
scalar RSUExampleScenario.node[16].veinsmobility startTime 49
scalar RSUExampleScenario.node[16].veinsmobility totalTime 45
scalar RSUExampleScenario.node[16].veinsmobility stopTime 94
scalar RSUExampleScenario.node[16].veinsmobility minSpeed 3.8447853377257
scalar RSUExampleScenario.node[16].veinsmobility maxSpeed 13.992536327657
scalar RSUExampleScenario.node[16].veinsmobility totalDistance 565.8245750343
scalar RSUExampleScenario.node[16].veinsmobility totalCO2Emission 124.73598580003
scalar RSUExampleScenario.node[17].appl generatedWSMs 0
scalar RSUExampleScenario.node[17].appl receivedWSMs 1
scalar RSUExampleScenario.node[17].appl generatedBSMs 0
scalar RSUExampleScenario.node[17].appl receivedBSMs 0
scalar RSUExampleScenario.node[17].appl generatedWSAs 0
scalar RSUExampleScenario.node[17].appl receivedWSAs 0
scalar RSUExampleScenario.node[17].nic.phy80211p busyTime 5.5238095238095e-06
scalar RSUExampleScenario.node[17].nic.mac1609_4 ReceivedUnicastPackets 0
scalar RSUExampleScenario.node[17].nic.mac1609_4 ReceivedBroadcasts 1
scalar RSUExampleScenario.node[17].nic.mac1609_4 SentPackets 0
scalar RSUExampleScenario.node[17].nic.mac1609_4 SentAcknowledgements 0
scalar RSUExampleScenario.node[17].nic.mac1609_4 RetriesExceeded 0
scalar RSUExampleScenario.node[17].nic.mac1609_4 SNIRLostPackets 0
scalar RSUExampleScenario.node[17].nic.mac1609_4 RXTXLostPackets 0
scalar RSUExampleScenario.node[17].nic.mac1609_4 TotalLostPackets 0
scalar RSUExampleScenario.node[17].nic.mac1609_4 DroppedPacketsInMac 0
scalar RSUExampleScenario.node[17].nic.mac1609_4 TooLittleTime 0
scalar RSUExampleScenario.node[17].nic.mac1609_4 TimesIntoBackoff 0
scalar RSUExampleScenario.node[17].nic.mac1609_4 SlotsBackoff 0
scalar RSUExampleScenario.node[17].nic.mac1609_4 NumInternalContention 0
scalar RSUExampleScenario.node[17].nic.mac1609_4 totalBusyTime 0.000232
scalar RSUExampleScenario.node[17].nic.mac1609_4 retriesExceeded:count 0
attr source org_car2x_veins_modules_mac_sigRetriesExceeded
scalar RSUExampleScenario.node[17].nic.mac1609_4 sentAcks:count 0
attr source org_car2x_veins_modules_mac_sigSentAck
scalar RSUExampleScenario.node[17].nic.mac1609_4 sentPackets:count 0
attr source org_car2x_veins_modules_mac_sigSentPacket
scalar RSUExampleScenario.node[17].nic.mac1609_4 collisions:count 0
attr source org_car2x_veins_modules_mac_sigCollision
scalar RSUExampleScenario.node[17].nic.mac1609_4 channelBusy:timeavg 5.5238095238095e-06
attr source org_car2x_veins_modules_mac_sigChannelBusy
scalar RSUExampleScenario.node[17].veinsmobility startTime 52
scalar RSUExampleScenario.node[17].veinsmobility totalTime 42
scalar RSUExampleScenario.node[17].veinsmobility stopTime 94
scalar RSUExampleScenario.node[17].veinsmobility minSpeed 3.8698786158062
scalar RSUExampleScenario.node[17].veinsmobility maxSpeed 12.0609251697
scalar RSUExampleScenario.node[17].veinsmobility totalDistance 429.15917016475
scalar RSUExampleScenario.node[17].veinsmobility totalCO2Emission 93.852153763773
scalar RSUExampleScenario.node[18].appl generatedWSMs 0
scalar RSUExampleScenario.node[18].appl receivedWSMs 1
scalar RSUExampleScenario.node[18].appl generatedBSMs 0
scalar RSUExampleScenario.node[18].appl receivedBSMs 0
scalar RSUExampleScenario.node[18].appl generatedWSAs 0
scalar RSUExampleScenario.node[18].appl receivedWSAs 0
scalar RSUExampleScenario.node[18].nic.phy80211p busyTime 5.9487179487179e-06
scalar RSUExampleScenario.node[18].nic.mac1609_4 ReceivedUnicastPackets 0
scalar RSUExampleScenario.node[18].nic.mac1609_4 ReceivedBroadcasts 1
scalar RSUExampleScenario.node[18].nic.mac1609_4 SentPackets 0
scalar RSUExampleScenario.node[18].nic.mac1609_4 SentAcknowledgements 0
scalar RSUExampleScenario.node[18].nic.mac1609_4 RetriesExceeded 0
scalar RSUExampleScenario.node[18].nic.mac1609_4 SNIRLostPackets 0
scalar RSUExampleScenario.node[18].nic.mac1609_4 RXTXLostPackets 0
scalar RSUExampleScenario.node[18].nic.mac1609_4 TotalLostPackets 0
scalar RSUExampleScenario.node[18].nic.mac1609_4 DroppedPacketsInMac 0
scalar RSUExampleScenario.node[18].nic.mac1609_4 TooLittleTime 0
scalar RSUExampleScenario.node[18].nic.mac1609_4 TimesIntoBackoff 0
scalar RSUExampleScenario.node[18].nic.mac1609_4 SlotsBackoff 0
scalar RSUExampleScenario.node[18].nic.mac1609_4 NumInternalContention 0
scalar RSUExampleScenario.node[18].nic.mac1609_4 totalBusyTime 0.000232
scalar RSUExampleScenario.node[18].nic.mac1609_4 retriesExceeded:count 0
attr source org_car2x_veins_modules_mac_sigRetriesExceeded
scalar RSUExampleScenario.node[18].nic.mac1609_4 sentAcks:count 0
attr source org_car2x_veins_modules_mac_sigSentAck
scalar RSUExampleScenario.node[18].nic.mac1609_4 sentPackets:count 0
attr source org_car2x_veins_modules_mac_sigSentPacket
scalar RSUExampleScenario.node[18].nic.mac1609_4 collisions:count 0
attr source org_car2x_veins_modules_mac_sigCollision
scalar RSUExampleScenario.node[18].nic.mac1609_4 channelBusy:timeavg 5.9487179487179e-06
attr source org_car2x_veins_modules_mac_sigChannelBusy
scalar RSUExampleScenario.node[18].veinsmobility startTime 55
scalar RSUExampleScenario.node[18].veinsmobility totalTime 39
scalar RSUExampleScenario.node[18].veinsmobility stopTime 94
scalar RSUExampleScenario.node[18].veinsmobility minSpeed 4.0700236807532
scalar RSUExampleScenario.node[18].veinsmobility maxSpeed 12.951351441674
scalar RSUExampleScenario.node[18].veinsmobility totalDistance 411.66670173733
scalar RSUExampleScenario.node[18].veinsmobility totalCO2Emission 94.285864886195
scalar RSUExampleScenario.node[19].appl generatedWSMs 0
scalar RSUExampleScenario.node[19].appl receivedWSMs 0
scalar RSUExampleScenario.node[19].appl generatedBSMs 0
scalar RSUExampleScenario.node[19].appl receivedBSMs 0
scalar RSUExampleScenario.node[19].appl generatedWSAs 0
scalar RSUExampleScenario.node[19].appl receivedWSAs 0
scalar RSUExampleScenario.node[19].nic.phy80211p busyTime 6.4444444444444e-06
scalar RSUExampleScenario.node[19].nic.mac1609_4 ReceivedUnicastPackets 0
scalar RSUExampleScenario.node[19].nic.mac1609_4 ReceivedBroadcasts 0
scalar RSUExampleScenario.node[19].nic.mac1609_4 SentPackets 0
scalar RSUExampleScenario.node[19].nic.mac1609_4 SentAcknowledgements 0
scalar RSUExampleScenario.node[19].nic.mac1609_4 RetriesExceeded 0
scalar RSUExampleScenario.node[19].nic.mac1609_4 SNIRLostPackets 1
scalar RSUExampleScenario.node[19].nic.mac1609_4 RXTXLostPackets 0
scalar RSUExampleScenario.node[19].nic.mac1609_4 TotalLostPackets 1
scalar RSUExampleScenario.node[19].nic.mac1609_4 DroppedPacketsInMac 0
scalar RSUExampleScenario.node[19].nic.mac1609_4 TooLittleTime 0
scalar RSUExampleScenario.node[19].nic.mac1609_4 TimesIntoBackoff 0
scalar RSUExampleScenario.node[19].nic.mac1609_4 SlotsBackoff 0
scalar RSUExampleScenario.node[19].nic.mac1609_4 NumInternalContention 0
scalar RSUExampleScenario.node[19].nic.mac1609_4 totalBusyTime 0.000232
scalar RSUExampleScenario.node[19].nic.mac1609_4 retriesExceeded:count 0
attr source org_car2x_veins_modules_mac_sigRetriesExceeded
scalar RSUExampleScenario.node[19].nic.mac1609_4 sentAcks:count 0
attr source org_car2x_veins_modules_mac_sigSentAck
scalar RSUExampleScenario.node[19].nic.mac1609_4 sentPackets:count 0
attr source org_car2x_veins_modules_mac_sigSentPacket
scalar RSUExampleScenario.node[19].nic.mac1609_4 collisions:count 0
attr source org_car2x_veins_modules_mac_sigCollision
scalar RSUExampleScenario.node[19].nic.mac1609_4 channelBusy:timeavg 6.4444444444444e-06
attr source org_car2x_veins_modules_mac_sigChannelBusy
scalar RSUExampleScenario.node[19].veinsmobility startTime 58
scalar RSUExampleScenario.node[19].veinsmobility totalTime 36
scalar RSUExampleScenario.node[19].veinsmobility stopTime 94
scalar RSUExampleScenario.node[19].veinsmobility minSpeed 3.8447639940612
scalar RSUExampleScenario.node[19].veinsmobility maxSpeed 13.489648629711
scalar RSUExampleScenario.node[19].veinsmobility totalDistance 393.88547721657
scalar RSUExampleScenario.node[19].veinsmobility totalCO2Emission 91.550561155906
scalar RSUExampleScenario.node[20].appl generatedWSMs 0
scalar RSUExampleScenario.node[20].appl receivedWSMs 0
scalar RSUExampleScenario.node[20].appl generatedBSMs 0
scalar RSUExampleScenario.node[20].appl receivedBSMs 0
scalar RSUExampleScenario.node[20].appl generatedWSAs 0
scalar RSUExampleScenario.node[20].appl receivedWSAs 0
scalar RSUExampleScenario.node[20].nic.phy80211p busyTime 7.030303030303e-06
scalar RSUExampleScenario.node[20].nic.mac1609_4 ReceivedUnicastPackets 0
scalar RSUExampleScenario.node[20].nic.mac1609_4 ReceivedBroadcasts 0
scalar RSUExampleScenario.node[20].nic.mac1609_4 SentPackets 0
scalar RSUExampleScenario.node[20].nic.mac1609_4 SentAcknowledgements 0
scalar RSUExampleScenario.node[20].nic.mac1609_4 RetriesExceeded 0
scalar RSUExampleScenario.node[20].nic.mac1609_4 SNIRLostPackets 1
scalar RSUExampleScenario.node[20].nic.mac1609_4 RXTXLostPackets 0
scalar RSUExampleScenario.node[20].nic.mac1609_4 TotalLostPackets 1
scalar RSUExampleScenario.node[20].nic.mac1609_4 DroppedPacketsInMac 0
scalar RSUExampleScenario.node[20].nic.mac1609_4 TooLittleTime 0
scalar RSUExampleScenario.node[20].nic.mac1609_4 TimesIntoBackoff 0
scalar RSUExampleScenario.node[20].nic.mac1609_4 SlotsBackoff 0
scalar RSUExampleScenario.node[20].nic.mac1609_4 NumInternalContention 0
scalar RSUExampleScenario.node[20].nic.mac1609_4 totalBusyTime 0.000232
scalar RSUExampleScenario.node[20].nic.mac1609_4 retriesExceeded:count 0
attr source org_car2x_veins_modules_mac_sigRetriesExceeded
scalar RSUExampleScenario.node[20].nic.mac1609_4 sentAcks:count 0
attr source org_car2x_veins_modules_mac_sigSentAck
scalar RSUExampleScenario.node[20].nic.mac1609_4 sentPackets:count 0
attr source org_car2x_veins_modules_mac_sigSentPacket
scalar RSUExampleScenario.node[20].nic.mac1609_4 collisions:count 0
attr source org_car2x_veins_modules_mac_sigCollision
scalar RSUExampleScenario.node[20].nic.mac1609_4 channelBusy:timeavg 7.030303030303e-06
attr source org_car2x_veins_modules_mac_sigChannelBusy
scalar RSUExampleScenario.node[20].veinsmobility startTime 61
scalar RSUExampleScenario.node[20].veinsmobility totalTime 33
scalar RSUExampleScenario.node[20].veinsmobility stopTime 94
scalar RSUExampleScenario.node[20].veinsmobility minSpeed 4.018615917157
scalar RSUExampleScenario.node[20].veinsmobility maxSpeed 13.970749160051
scalar RSUExampleScenario.node[20].veinsmobility totalDistance 373.79893316872
scalar RSUExampleScenario.node[20].veinsmobility totalCO2Emission 94.794088720518
scalar RSUExampleScenario.node[21].appl generatedWSMs 0
scalar RSUExampleScenario.node[21].appl receivedWSMs 0
scalar RSUExampleScenario.node[21].appl generatedBSMs 0
scalar RSUExampleScenario.node[21].appl receivedBSMs 0
scalar RSUExampleScenario.node[21].appl generatedWSAs 0
scalar RSUExampleScenario.node[21].appl receivedWSAs 0
scalar RSUExampleScenario.node[21].nic.phy80211p busyTime 7.7333333333333e-06
scalar RSUExampleScenario.node[21].nic.mac1609_4 ReceivedUnicastPackets 0
scalar RSUExampleScenario.node[21].nic.mac1609_4 ReceivedBroadcasts 0
scalar RSUExampleScenario.node[21].nic.mac1609_4 SentPackets 0
scalar RSUExampleScenario.node[21].nic.mac1609_4 SentAcknowledgements 0
scalar RSUExampleScenario.node[21].nic.mac1609_4 RetriesExceeded 0
scalar RSUExampleScenario.node[21].nic.mac1609_4 SNIRLostPackets 1
scalar RSUExampleScenario.node[21].nic.mac1609_4 RXTXLostPackets 0
scalar RSUExampleScenario.node[21].nic.mac1609_4 TotalLostPackets 1
scalar RSUExampleScenario.node[21].nic.mac1609_4 DroppedPacketsInMac 0
scalar RSUExampleScenario.node[21].nic.mac1609_4 TooLittleTime 0
scalar RSUExampleScenario.node[21].nic.mac1609_4 TimesIntoBackoff 0
scalar RSUExampleScenario.node[21].nic.mac1609_4 SlotsBackoff 0
scalar RSUExampleScenario.node[21].nic.mac1609_4 NumInternalContention 0
scalar RSUExampleScenario.node[21].nic.mac1609_4 totalBusyTime 0.000232
scalar RSUExampleScenario.node[21].nic.mac1609_4 retriesExceeded:count 0
attr source org_car2x_veins_modules_mac_sigRetriesExceeded
scalar RSUExampleScenario.node[21].nic.mac1609_4 sentAcks:count 0
attr source org_car2x_veins_modules_mac_sigSentAck
scalar RSUExampleScenario.node[21].nic.mac1609_4 sentPackets:count 0
attr source org_car2x_veins_modules_mac_sigSentPacket
scalar RSUExampleScenario.node[21].nic.mac1609_4 collisions:count 0
attr source org_car2x_veins_modules_mac_sigCollision
scalar RSUExampleScenario.node[21].nic.mac1609_4 channelBusy:timeavg 7.7333333333333e-06
attr source org_car2x_veins_modules_mac_sigChannelBusy
scalar RSUExampleScenario.node[21].veinsmobility startTime 64
scalar RSUExampleScenario.node[21].veinsmobility totalTime 30
scalar RSUExampleScenario.node[21].veinsmobility stopTime 94
scalar RSUExampleScenario.node[21].veinsmobility minSpeed 4.2842987557744
scalar RSUExampleScenario.node[21].veinsmobility maxSpeed 13.971978112771
scalar RSUExampleScenario.node[21].veinsmobility totalDistance 337.67304476803
scalar RSUExampleScenario.node[21].veinsmobility totalCO2Emission 88.964534527895
scalar RSUExampleScenario.node[22].appl generatedWSMs 0
scalar RSUExampleScenario.node[22].appl receivedWSMs 0
scalar RSUExampleScenario.node[22].appl generatedBSMs 0
scalar RSUExampleScenario.node[22].appl receivedBSMs 0
scalar RSUExampleScenario.node[22].appl generatedWSAs 0
scalar RSUExampleScenario.node[22].appl receivedWSAs 0
scalar RSUExampleScenario.node[22].nic.phy80211p busyTime 0
scalar RSUExampleScenario.node[22].nic.mac1609_4 ReceivedUnicastPackets 0
scalar RSUExampleScenario.node[22].nic.mac1609_4 ReceivedBroadcasts 0
scalar RSUExampleScenario.node[22].nic.mac1609_4 SentPackets 0
scalar RSUExampleScenario.node[22].nic.mac1609_4 SentAcknowledgements 0
scalar RSUExampleScenario.node[22].nic.mac1609_4 RetriesExceeded 0
scalar RSUExampleScenario.node[22].nic.mac1609_4 SNIRLostPackets 0
scalar RSUExampleScenario.node[22].nic.mac1609_4 RXTXLostPackets 0
scalar RSUExampleScenario.node[22].nic.mac1609_4 TotalLostPackets 0
scalar RSUExampleScenario.node[22].nic.mac1609_4 DroppedPacketsInMac 0
scalar RSUExampleScenario.node[22].nic.mac1609_4 TooLittleTime 0
scalar RSUExampleScenario.node[22].nic.mac1609_4 TimesIntoBackoff 0
scalar RSUExampleScenario.node[22].nic.mac1609_4 SlotsBackoff 0
scalar RSUExampleScenario.node[22].nic.mac1609_4 NumInternalContention 0
scalar RSUExampleScenario.node[22].nic.mac1609_4 totalBusyTime 0
scalar RSUExampleScenario.node[22].nic.mac1609_4 retriesExceeded:count 0
attr source org_car2x_veins_modules_mac_sigRetriesExceeded
scalar RSUExampleScenario.node[22].nic.mac1609_4 sentAcks:count 0
attr source org_car2x_veins_modules_mac_sigSentAck
scalar RSUExampleScenario.node[22].nic.mac1609_4 sentPackets:count 0
attr source org_car2x_veins_modules_mac_sigSentPacket
scalar RSUExampleScenario.node[22].nic.mac1609_4 collisions:count 0
attr source org_car2x_veins_modules_mac_sigCollision
scalar RSUExampleScenario.node[22].nic.mac1609_4 channelBusy:timeavg 0
attr source org_car2x_veins_modules_mac_sigChannelBusy
scalar RSUExampleScenario.node[22].veinsmobility startTime 67
scalar RSUExampleScenario.node[22].veinsmobility totalTime 27
scalar RSUExampleScenario.node[22].veinsmobility stopTime 94
scalar RSUExampleScenario.node[22].veinsmobility minSpeed 4.1832233416825
scalar RSUExampleScenario.node[22].veinsmobility maxSpeed 13.972577105726
scalar RSUExampleScenario.node[22].veinsmobility totalDistance 309.61043791134
scalar RSUExampleScenario.node[22].veinsmobility totalCO2Emission 88.368155062525
scalar RSUExampleScenario.node[23].appl generatedWSMs 0
scalar RSUExampleScenario.node[23].appl receivedWSMs 0
scalar RSUExampleScenario.node[23].appl generatedBSMs 0
scalar RSUExampleScenario.node[23].appl receivedBSMs 0
scalar RSUExampleScenario.node[23].appl generatedWSAs 0
scalar RSUExampleScenario.node[23].appl receivedWSAs 0
scalar RSUExampleScenario.node[23].nic.phy80211p busyTime 0
scalar RSUExampleScenario.node[23].nic.mac1609_4 ReceivedUnicastPackets 0
scalar RSUExampleScenario.node[23].nic.mac1609_4 ReceivedBroadcasts 0
scalar RSUExampleScenario.node[23].nic.mac1609_4 SentPackets 0
scalar RSUExampleScenario.node[23].nic.mac1609_4 SentAcknowledgements 0
scalar RSUExampleScenario.node[23].nic.mac1609_4 RetriesExceeded 0
scalar RSUExampleScenario.node[23].nic.mac1609_4 SNIRLostPackets 0
scalar RSUExampleScenario.node[23].nic.mac1609_4 RXTXLostPackets 0
scalar RSUExampleScenario.node[23].nic.mac1609_4 TotalLostPackets 0
scalar RSUExampleScenario.node[23].nic.mac1609_4 DroppedPacketsInMac 0
scalar RSUExampleScenario.node[23].nic.mac1609_4 TooLittleTime 0
scalar RSUExampleScenario.node[23].nic.mac1609_4 TimesIntoBackoff 0
scalar RSUExampleScenario.node[23].nic.mac1609_4 SlotsBackoff 0
scalar RSUExampleScenario.node[23].nic.mac1609_4 NumInternalContention 0
scalar RSUExampleScenario.node[23].nic.mac1609_4 totalBusyTime 0
scalar RSUExampleScenario.node[23].nic.mac1609_4 retriesExceeded:count 0
attr source org_car2x_veins_modules_mac_sigRetriesExceeded
scalar RSUExampleScenario.node[23].nic.mac1609_4 sentAcks:count 0
attr source org_car2x_veins_modules_mac_sigSentAck
scalar RSUExampleScenario.node[23].nic.mac1609_4 sentPackets:count 0
attr source org_car2x_veins_modules_mac_sigSentPacket
scalar RSUExampleScenario.node[23].nic.mac1609_4 collisions:count 0
attr source org_car2x_veins_modules_mac_sigCollision
scalar RSUExampleScenario.node[23].nic.mac1609_4 channelBusy:timeavg 0
attr source org_car2x_veins_modules_mac_sigChannelBusy
scalar RSUExampleScenario.node[23].veinsmobility startTime 70
scalar RSUExampleScenario.node[23].veinsmobility totalTime 24
scalar RSUExampleScenario.node[23].veinsmobility stopTime 94
scalar RSUExampleScenario.node[23].veinsmobility minSpeed 4.0859593419879
scalar RSUExampleScenario.node[23].veinsmobility maxSpeed 10.402252755186
scalar RSUExampleScenario.node[23].veinsmobility totalDistance 226.08336495863
scalar RSUExampleScenario.node[23].veinsmobility totalCO2Emission 49.57182066459
scalar RSUExampleScenario.node[24].appl generatedWSMs 0
scalar RSUExampleScenario.node[24].appl receivedWSMs 0
scalar RSUExampleScenario.node[24].appl generatedBSMs 0
scalar RSUExampleScenario.node[24].appl receivedBSMs 0
scalar RSUExampleScenario.node[24].appl generatedWSAs 0
scalar RSUExampleScenario.node[24].appl receivedWSAs 0
scalar RSUExampleScenario.node[24].nic.phy80211p busyTime 0
scalar RSUExampleScenario.node[24].nic.mac1609_4 ReceivedUnicastPackets 0
scalar RSUExampleScenario.node[24].nic.mac1609_4 ReceivedBroadcasts 0
scalar RSUExampleScenario.node[24].nic.mac1609_4 SentPackets 0
scalar RSUExampleScenario.node[24].nic.mac1609_4 SentAcknowledgements 0
scalar RSUExampleScenario.node[24].nic.mac1609_4 RetriesExceeded 0
scalar RSUExampleScenario.node[24].nic.mac1609_4 SNIRLostPackets 0
scalar RSUExampleScenario.node[24].nic.mac1609_4 RXTXLostPackets 0
scalar RSUExampleScenario.node[24].nic.mac1609_4 TotalLostPackets 0
scalar RSUExampleScenario.node[24].nic.mac1609_4 DroppedPacketsInMac 0
scalar RSUExampleScenario.node[24].nic.mac1609_4 TooLittleTime 0
scalar RSUExampleScenario.node[24].nic.mac1609_4 TimesIntoBackoff 0
scalar RSUExampleScenario.node[24].nic.mac1609_4 SlotsBackoff 0
scalar RSUExampleScenario.node[24].nic.mac1609_4 NumInternalContention 0
scalar RSUExampleScenario.node[24].nic.mac1609_4 totalBusyTime 0
scalar RSUExampleScenario.node[24].nic.mac1609_4 retriesExceeded:count 0
attr source org_car2x_veins_modules_mac_sigRetriesExceeded
scalar RSUExampleScenario.node[24].nic.mac1609_4 sentAcks:count 0
attr source org_car2x_veins_modules_mac_sigSentAck
scalar RSUExampleScenario.node[24].nic.mac1609_4 sentPackets:count 0
attr source org_car2x_veins_modules_mac_sigSentPacket
scalar RSUExampleScenario.node[24].nic.mac1609_4 collisions:count 0
attr source org_car2x_veins_modules_mac_sigCollision
scalar RSUExampleScenario.node[24].nic.mac1609_4 channelBusy:timeavg 0
attr source org_car2x_veins_modules_mac_sigChannelBusy
scalar RSUExampleScenario.node[24].veinsmobility startTime 73
scalar RSUExampleScenario.node[24].veinsmobility totalTime 21
scalar RSUExampleScenario.node[24].veinsmobility stopTime 94
scalar RSUExampleScenario.node[24].veinsmobility minSpeed 4.0735588402093
scalar RSUExampleScenario.node[24].veinsmobility maxSpeed 12.998777343629
scalar RSUExampleScenario.node[24].veinsmobility totalDistance 211.5929335849
scalar RSUExampleScenario.node[24].veinsmobility totalCO2Emission 48.357093256202
scalar RSUExampleScenario.node[25].appl generatedWSMs 0
scalar RSUExampleScenario.node[25].appl receivedWSMs 0
scalar RSUExampleScenario.node[25].appl generatedBSMs 0
scalar RSUExampleScenario.node[25].appl receivedBSMs 0
scalar RSUExampleScenario.node[25].appl generatedWSAs 0
scalar RSUExampleScenario.node[25].appl receivedWSAs 0
scalar RSUExampleScenario.node[25].nic.phy80211p busyTime 0
scalar RSUExampleScenario.node[25].nic.mac1609_4 ReceivedUnicastPackets 0
scalar RSUExampleScenario.node[25].nic.mac1609_4 ReceivedBroadcasts 0
scalar RSUExampleScenario.node[25].nic.mac1609_4 SentPackets 0
scalar RSUExampleScenario.node[25].nic.mac1609_4 SentAcknowledgements 0
scalar RSUExampleScenario.node[25].nic.mac1609_4 RetriesExceeded 0
scalar RSUExampleScenario.node[25].nic.mac1609_4 SNIRLostPackets 0
scalar RSUExampleScenario.node[25].nic.mac1609_4 RXTXLostPackets 0
scalar RSUExampleScenario.node[25].nic.mac1609_4 TotalLostPackets 0
scalar RSUExampleScenario.node[25].nic.mac1609_4 DroppedPacketsInMac 0
scalar RSUExampleScenario.node[25].nic.mac1609_4 TooLittleTime 0
scalar RSUExampleScenario.node[25].nic.mac1609_4 TimesIntoBackoff 0
scalar RSUExampleScenario.node[25].nic.mac1609_4 SlotsBackoff 0
scalar RSUExampleScenario.node[25].nic.mac1609_4 NumInternalContention 0
scalar RSUExampleScenario.node[25].nic.mac1609_4 totalBusyTime 0
scalar RSUExampleScenario.node[25].nic.mac1609_4 retriesExceeded:count 0
attr source org_car2x_veins_modules_mac_sigRetriesExceeded
scalar RSUExampleScenario.node[25].nic.mac1609_4 sentAcks:count 0
attr source org_car2x_veins_modules_mac_sigSentAck
scalar RSUExampleScenario.node[25].nic.mac1609_4 sentPackets:count 0
attr source org_car2x_veins_modules_mac_sigSentPacket
scalar RSUExampleScenario.node[25].nic.mac1609_4 collisions:count 0
attr source org_car2x_veins_modules_mac_sigCollision
scalar RSUExampleScenario.node[25].nic.mac1609_4 channelBusy:timeavg 0
attr source org_car2x_veins_modules_mac_sigChannelBusy
scalar RSUExampleScenario.node[25].veinsmobility startTime 76
scalar RSUExampleScenario.node[25].veinsmobility totalTime 18
scalar RSUExampleScenario.node[25].veinsmobility stopTime 94
scalar RSUExampleScenario.node[25].veinsmobility minSpeed 4.0635240824116
scalar RSUExampleScenario.node[25].veinsmobility maxSpeed 13.936045407304
scalar RSUExampleScenario.node[25].veinsmobility totalDistance 195.21697560288
scalar RSUExampleScenario.node[25].veinsmobility totalCO2Emission 47.827123239779
scalar RSUExampleScenario.node[26].appl generatedWSMs 0
scalar RSUExampleScenario.node[26].appl receivedWSMs 0
scalar RSUExampleScenario.node[26].appl generatedBSMs 0
scalar RSUExampleScenario.node[26].appl receivedBSMs 0
scalar RSUExampleScenario.node[26].appl generatedWSAs 0
scalar RSUExampleScenario.node[26].appl receivedWSAs 0
scalar RSUExampleScenario.node[26].nic.phy80211p busyTime 0
scalar RSUExampleScenario.node[26].nic.mac1609_4 ReceivedUnicastPackets 0
scalar RSUExampleScenario.node[26].nic.mac1609_4 ReceivedBroadcasts 0
scalar RSUExampleScenario.node[26].nic.mac1609_4 SentPackets 0
scalar RSUExampleScenario.node[26].nic.mac1609_4 SentAcknowledgements 0
scalar RSUExampleScenario.node[26].nic.mac1609_4 RetriesExceeded 0
scalar RSUExampleScenario.node[26].nic.mac1609_4 SNIRLostPackets 0
scalar RSUExampleScenario.node[26].nic.mac1609_4 RXTXLostPackets 0
scalar RSUExampleScenario.node[26].nic.mac1609_4 TotalLostPackets 0
scalar RSUExampleScenario.node[26].nic.mac1609_4 DroppedPacketsInMac 0
scalar RSUExampleScenario.node[26].nic.mac1609_4 TooLittleTime 0
scalar RSUExampleScenario.node[26].nic.mac1609_4 TimesIntoBackoff 0
scalar RSUExampleScenario.node[26].nic.mac1609_4 SlotsBackoff 0
scalar RSUExampleScenario.node[26].nic.mac1609_4 NumInternalContention 0
scalar RSUExampleScenario.node[26].nic.mac1609_4 totalBusyTime 0
scalar RSUExampleScenario.node[26].nic.mac1609_4 retriesExceeded:count 0
attr source org_car2x_veins_modules_mac_sigRetriesExceeded
scalar RSUExampleScenario.node[26].nic.mac1609_4 sentAcks:count 0
attr source org_car2x_veins_modules_mac_sigSentAck
scalar RSUExampleScenario.node[26].nic.mac1609_4 sentPackets:count 0
attr source org_car2x_veins_modules_mac_sigSentPacket
scalar RSUExampleScenario.node[26].nic.mac1609_4 collisions:count 0
attr source org_car2x_veins_modules_mac_sigCollision
scalar RSUExampleScenario.node[26].nic.mac1609_4 channelBusy:timeavg 0
attr source org_car2x_veins_modules_mac_sigChannelBusy
scalar RSUExampleScenario.node[26].veinsmobility startTime 79
scalar RSUExampleScenario.node[26].veinsmobility totalTime 15
scalar RSUExampleScenario.node[26].veinsmobility stopTime 94
scalar RSUExampleScenario.node[26].veinsmobility minSpeed 4.0267229073465
scalar RSUExampleScenario.node[26].veinsmobility maxSpeed 13.562368140693
scalar RSUExampleScenario.node[26].veinsmobility totalDistance 167.22427666207
scalar RSUExampleScenario.node[26].veinsmobility totalCO2Emission 47.363562846929
scalar RSUExampleScenario.node[27].appl generatedWSMs 0
scalar RSUExampleScenario.node[27].appl receivedWSMs 0
scalar RSUExampleScenario.node[27].appl generatedBSMs 0
scalar RSUExampleScenario.node[27].appl receivedBSMs 0
scalar RSUExampleScenario.node[27].appl generatedWSAs 0
scalar RSUExampleScenario.node[27].appl receivedWSAs 0
scalar RSUExampleScenario.node[27].nic.phy80211p busyTime 0
scalar RSUExampleScenario.node[27].nic.mac1609_4 ReceivedUnicastPackets 0
scalar RSUExampleScenario.node[27].nic.mac1609_4 ReceivedBroadcasts 0
scalar RSUExampleScenario.node[27].nic.mac1609_4 SentPackets 0
scalar RSUExampleScenario.node[27].nic.mac1609_4 SentAcknowledgements 0
scalar RSUExampleScenario.node[27].nic.mac1609_4 RetriesExceeded 0
scalar RSUExampleScenario.node[27].nic.mac1609_4 SNIRLostPackets 0
scalar RSUExampleScenario.node[27].nic.mac1609_4 RXTXLostPackets 0
scalar RSUExampleScenario.node[27].nic.mac1609_4 TotalLostPackets 0
scalar RSUExampleScenario.node[27].nic.mac1609_4 DroppedPacketsInMac 0
scalar RSUExampleScenario.node[27].nic.mac1609_4 TooLittleTime 0
scalar RSUExampleScenario.node[27].nic.mac1609_4 TimesIntoBackoff 0
scalar RSUExampleScenario.node[27].nic.mac1609_4 SlotsBackoff 0
scalar RSUExampleScenario.node[27].nic.mac1609_4 NumInternalContention 0
scalar RSUExampleScenario.node[27].nic.mac1609_4 totalBusyTime 0
scalar RSUExampleScenario.node[27].nic.mac1609_4 retriesExceeded:count 0
attr source org_car2x_veins_modules_mac_sigRetriesExceeded
scalar RSUExampleScenario.node[27].nic.mac1609_4 sentAcks:count 0
attr source org_car2x_veins_modules_mac_sigSentAck
scalar RSUExampleScenario.node[27].nic.mac1609_4 sentPackets:count 0
attr source org_car2x_veins_modules_mac_sigSentPacket
scalar RSUExampleScenario.node[27].nic.mac1609_4 collisions:count 0
attr source org_car2x_veins_modules_mac_sigCollision
scalar RSUExampleScenario.node[27].nic.mac1609_4 channelBusy:timeavg 0
attr source org_car2x_veins_modules_mac_sigChannelBusy
scalar RSUExampleScenario.node[27].veinsmobility startTime 82
scalar RSUExampleScenario.node[27].veinsmobility totalTime 12
scalar RSUExampleScenario.node[27].veinsmobility stopTime 94
scalar RSUExampleScenario.node[27].veinsmobility minSpeed 3.8169569386458
scalar RSUExampleScenario.node[27].veinsmobility maxSpeed 13.981699167432
scalar RSUExampleScenario.node[27].veinsmobility totalDistance 128.79877943415
scalar RSUExampleScenario.node[27].veinsmobility totalCO2Emission 44.411894018612
scalar RSUExampleScenario.node[28].appl generatedWSMs 0
scalar RSUExampleScenario.node[28].appl receivedWSMs 0
scalar RSUExampleScenario.node[28].appl generatedBSMs 0
scalar RSUExampleScenario.node[28].appl receivedBSMs 0
scalar RSUExampleScenario.node[28].appl generatedWSAs 0
scalar RSUExampleScenario.node[28].appl receivedWSAs 0
scalar RSUExampleScenario.node[28].nic.phy80211p busyTime 0
scalar RSUExampleScenario.node[28].nic.mac1609_4 ReceivedUnicastPackets 0
scalar RSUExampleScenario.node[28].nic.mac1609_4 ReceivedBroadcasts 0
scalar RSUExampleScenario.node[28].nic.mac1609_4 SentPackets 0
scalar RSUExampleScenario.node[28].nic.mac1609_4 SentAcknowledgements 0
scalar RSUExampleScenario.node[28].nic.mac1609_4 RetriesExceeded 0
scalar RSUExampleScenario.node[28].nic.mac1609_4 SNIRLostPackets 0
scalar RSUExampleScenario.node[28].nic.mac1609_4 RXTXLostPackets 0
scalar RSUExampleScenario.node[28].nic.mac1609_4 TotalLostPackets 0
scalar RSUExampleScenario.node[28].nic.mac1609_4 DroppedPacketsInMac 0
scalar RSUExampleScenario.node[28].nic.mac1609_4 TooLittleTime 0
scalar RSUExampleScenario.node[28].nic.mac1609_4 TimesIntoBackoff 0
scalar RSUExampleScenario.node[28].nic.mac1609_4 SlotsBackoff 0
scalar RSUExampleScenario.node[28].nic.mac1609_4 NumInternalContention 0
scalar RSUExampleScenario.node[28].nic.mac1609_4 totalBusyTime 0
scalar RSUExampleScenario.node[28].nic.mac1609_4 retriesExceeded:count 0
attr source org_car2x_veins_modules_mac_sigRetriesExceeded
scalar RSUExampleScenario.node[28].nic.mac1609_4 sentAcks:count 0
attr source org_car2x_veins_modules_mac_sigSentAck
scalar RSUExampleScenario.node[28].nic.mac1609_4 sentPackets:count 0
attr source org_car2x_veins_modules_mac_sigSentPacket
scalar RSUExampleScenario.node[28].nic.mac1609_4 collisions:count 0
attr source org_car2x_veins_modules_mac_sigCollision
scalar RSUExampleScenario.node[28].nic.mac1609_4 channelBusy:timeavg 0
attr source org_car2x_veins_modules_mac_sigChannelBusy
scalar RSUExampleScenario.node[28].veinsmobility startTime 85
scalar RSUExampleScenario.node[28].veinsmobility totalTime 9
scalar RSUExampleScenario.node[28].veinsmobility stopTime 94
scalar RSUExampleScenario.node[28].veinsmobility minSpeed 4.0343364698305
scalar RSUExampleScenario.node[28].veinsmobility maxSpeed 13.983072519409
scalar RSUExampleScenario.node[28].veinsmobility totalDistance 89.485906437001
scalar RSUExampleScenario.node[28].veinsmobility totalCO2Emission 38.183715364507
scalar RSUExampleScenario.node[29].appl generatedWSMs 0
scalar RSUExampleScenario.node[29].appl receivedWSMs 0
scalar RSUExampleScenario.node[29].appl generatedBSMs 0
scalar RSUExampleScenario.node[29].appl receivedBSMs 0
scalar RSUExampleScenario.node[29].appl generatedWSAs 0
scalar RSUExampleScenario.node[29].appl receivedWSAs 0
scalar RSUExampleScenario.node[29].nic.phy80211p busyTime 0
scalar RSUExampleScenario.node[29].nic.mac1609_4 ReceivedUnicastPackets 0
scalar RSUExampleScenario.node[29].nic.mac1609_4 ReceivedBroadcasts 0
scalar RSUExampleScenario.node[29].nic.mac1609_4 SentPackets 0
scalar RSUExampleScenario.node[29].nic.mac1609_4 SentAcknowledgements 0
scalar RSUExampleScenario.node[29].nic.mac1609_4 RetriesExceeded 0
scalar RSUExampleScenario.node[29].nic.mac1609_4 SNIRLostPackets 0
scalar RSUExampleScenario.node[29].nic.mac1609_4 RXTXLostPackets 0
scalar RSUExampleScenario.node[29].nic.mac1609_4 TotalLostPackets 0
scalar RSUExampleScenario.node[29].nic.mac1609_4 DroppedPacketsInMac 0
scalar RSUExampleScenario.node[29].nic.mac1609_4 TooLittleTime 0
scalar RSUExampleScenario.node[29].nic.mac1609_4 TimesIntoBackoff 0
scalar RSUExampleScenario.node[29].nic.mac1609_4 SlotsBackoff 0
scalar RSUExampleScenario.node[29].nic.mac1609_4 NumInternalContention 0
scalar RSUExampleScenario.node[29].nic.mac1609_4 totalBusyTime 0
scalar RSUExampleScenario.node[29].nic.mac1609_4 retriesExceeded:count 0
attr source org_car2x_veins_modules_mac_sigRetriesExceeded
scalar RSUExampleScenario.node[29].nic.mac1609_4 sentAcks:count 0
attr source org_car2x_veins_modules_mac_sigSentAck
scalar RSUExampleScenario.node[29].nic.mac1609_4 sentPackets:count 0
attr source org_car2x_veins_modules_mac_sigSentPacket
scalar RSUExampleScenario.node[29].nic.mac1609_4 collisions:count 0
attr source org_car2x_veins_modules_mac_sigCollision
scalar RSUExampleScenario.node[29].nic.mac1609_4 channelBusy:timeavg 0
attr source org_car2x_veins_modules_mac_sigChannelBusy
scalar RSUExampleScenario.node[29].veinsmobility startTime 88
scalar RSUExampleScenario.node[29].veinsmobility totalTime 6
scalar RSUExampleScenario.node[29].veinsmobility stopTime 94
scalar RSUExampleScenario.node[29].veinsmobility minSpeed 4.0013211675714
scalar RSUExampleScenario.node[29].veinsmobility maxSpeed 13.710967943585
scalar RSUExampleScenario.node[29].veinsmobility totalDistance 47.2100371684
scalar RSUExampleScenario.node[29].veinsmobility totalCO2Emission 31.431154292129
scalar RSUExampleScenario.node[30].appl generatedWSMs 0
scalar RSUExampleScenario.node[30].appl receivedWSMs 0
scalar RSUExampleScenario.node[30].appl generatedBSMs 0
scalar RSUExampleScenario.node[30].appl receivedBSMs 0
scalar RSUExampleScenario.node[30].appl generatedWSAs 0
scalar RSUExampleScenario.node[30].appl receivedWSAs 0
scalar RSUExampleScenario.node[30].nic.phy80211p busyTime 0
scalar RSUExampleScenario.node[30].nic.mac1609_4 ReceivedUnicastPackets 0
scalar RSUExampleScenario.node[30].nic.mac1609_4 ReceivedBroadcasts 0
scalar RSUExampleScenario.node[30].nic.mac1609_4 SentPackets 0
scalar RSUExampleScenario.node[30].nic.mac1609_4 SentAcknowledgements 0
scalar RSUExampleScenario.node[30].nic.mac1609_4 RetriesExceeded 0
scalar RSUExampleScenario.node[30].nic.mac1609_4 SNIRLostPackets 0
scalar RSUExampleScenario.node[30].nic.mac1609_4 RXTXLostPackets 0
scalar RSUExampleScenario.node[30].nic.mac1609_4 TotalLostPackets 0
scalar RSUExampleScenario.node[30].nic.mac1609_4 DroppedPacketsInMac 0
scalar RSUExampleScenario.node[30].nic.mac1609_4 TooLittleTime 0
scalar RSUExampleScenario.node[30].nic.mac1609_4 TimesIntoBackoff 0
scalar RSUExampleScenario.node[30].nic.mac1609_4 SlotsBackoff 0
scalar RSUExampleScenario.node[30].nic.mac1609_4 NumInternalContention 0
scalar RSUExampleScenario.node[30].nic.mac1609_4 totalBusyTime 0
scalar RSUExampleScenario.node[30].nic.mac1609_4 retriesExceeded:count 0
attr source org_car2x_veins_modules_mac_sigRetriesExceeded
scalar RSUExampleScenario.node[30].nic.mac1609_4 sentAcks:count 0
attr source org_car2x_veins_modules_mac_sigSentAck
scalar RSUExampleScenario.node[30].nic.mac1609_4 sentPackets:count 0
attr source org_car2x_veins_modules_mac_sigSentPacket
scalar RSUExampleScenario.node[30].nic.mac1609_4 collisions:count 0
attr source org_car2x_veins_modules_mac_sigCollision
scalar RSUExampleScenario.node[30].nic.mac1609_4 channelBusy:timeavg 0
attr source org_car2x_veins_modules_mac_sigChannelBusy
scalar RSUExampleScenario.node[30].veinsmobility startTime 91
scalar RSUExampleScenario.node[30].veinsmobility totalTime 3
scalar RSUExampleScenario.node[30].veinsmobility stopTime 94
scalar RSUExampleScenario.node[30].veinsmobility minSpeed 4.0929231651139
scalar RSUExampleScenario.node[30].veinsmobility maxSpeed 7.9514762463106
scalar RSUExampleScenario.node[30].veinsmobility totalDistance 15.323121076728
scalar RSUExampleScenario.node[30].veinsmobility totalCO2Emission 9.4562525370534
scalar RSUExampleScenario.node[31].appl generatedWSMs 0
scalar RSUExampleScenario.node[31].appl receivedWSMs 0
scalar RSUExampleScenario.node[31].appl generatedBSMs 0
scalar RSUExampleScenario.node[31].appl receivedBSMs 0
scalar RSUExampleScenario.node[31].appl generatedWSAs 0
scalar RSUExampleScenario.node[31].appl receivedWSAs 0
scalar RSUExampleScenario.node[31].nic.phy80211p busyTime -nan
scalar RSUExampleScenario.node[31].nic.mac1609_4 ReceivedUnicastPackets 0
scalar RSUExampleScenario.node[31].nic.mac1609_4 ReceivedBroadcasts 0
scalar RSUExampleScenario.node[31].nic.mac1609_4 SentPackets 0
scalar RSUExampleScenario.node[31].nic.mac1609_4 SentAcknowledgements 0
scalar RSUExampleScenario.node[31].nic.mac1609_4 RetriesExceeded 0
scalar RSUExampleScenario.node[31].nic.mac1609_4 SNIRLostPackets 0
scalar RSUExampleScenario.node[31].nic.mac1609_4 RXTXLostPackets 0
scalar RSUExampleScenario.node[31].nic.mac1609_4 TotalLostPackets 0
scalar RSUExampleScenario.node[31].nic.mac1609_4 DroppedPacketsInMac 0
scalar RSUExampleScenario.node[31].nic.mac1609_4 TooLittleTime 0
scalar RSUExampleScenario.node[31].nic.mac1609_4 TimesIntoBackoff 0
scalar RSUExampleScenario.node[31].nic.mac1609_4 SlotsBackoff 0
scalar RSUExampleScenario.node[31].nic.mac1609_4 NumInternalContention 0
scalar RSUExampleScenario.node[31].nic.mac1609_4 totalBusyTime 0
scalar RSUExampleScenario.node[31].nic.mac1609_4 retriesExceeded:count 0
attr source org_car2x_veins_modules_mac_sigRetriesExceeded
scalar RSUExampleScenario.node[31].nic.mac1609_4 sentAcks:count 0
attr source org_car2x_veins_modules_mac_sigSentAck
scalar RSUExampleScenario.node[31].nic.mac1609_4 sentPackets:count 0
attr source org_car2x_veins_modules_mac_sigSentPacket
scalar RSUExampleScenario.node[31].nic.mac1609_4 collisions:count 0
attr source org_car2x_veins_modules_mac_sigCollision
scalar RSUExampleScenario.node[31].nic.mac1609_4 channelBusy:timeavg -nan
attr source org_car2x_veins_modules_mac_sigChannelBusy
scalar RSUExampleScenario.node[31].veinsmobility startTime 94
scalar RSUExampleScenario.node[31].veinsmobility totalTime 0
scalar RSUExampleScenario.node[31].veinsmobility stopTime 94
scalar RSUExampleScenario.node[31].veinsmobility totalDistance 0
scalar RSUExampleScenario.node[31].veinsmobility totalCO2Emission 0

