file 494432 1743515025                                          
version 2
run Default-0-20250401-10:43:05-5808
attr configname Default
attr datetime 20250401-10:43:05
attr experiment Default
attr inifile omnetpp.ini
attr iterationvars ""
attr iterationvarsf ""
attr measurement ""
attr network RSUExampleScenario
attr processid 5808
attr repetition 0
attr replication #0
attr resultdir results
attr runnumber 0
attr seedset 0
param *.playgroundSizeX 2500m
param *.playgroundSizeY 2500m
param *.playgroundSizeZ 50m
param *.annotations.draw true
param *.obstacles.obstacles "xmldoc(\"config.xml\", \"//AnalogueModel[@type='SimpleObstacleShadowing']/obstacles\")"
param *.manager.updateInterval 1s
param *.manager.host "\"localhost\""
param *.manager.port 9999
param *.manager.autoShutdown true
param *.manager.launchConfig "xmldoc(\"erlangen.launchd.xml\")"
param *.rsu[0].mobility.x 2000
param *.rsu[0].mobility.y 2000
param *.rsu[0].mobility.z 3
param *.rsu[*].applType "\"TraCIDemoRSU11p\""
param *.rsu[*].appl.headerLength "80 bit"
param *.rsu[*].appl.sendBeacons false
param *.rsu[*].appl.dataOnSch false
param *.rsu[*].appl.beaconInterval 1s
param *.rsu[*].appl.beaconUserPriority 7
param *.rsu[*].appl.dataUserPriority 5
param *.rsu[*].nic.phy80211p.antennaOffsetZ "0 m"
param *.connectionManager.sendDirect true
param *.connectionManager.maxInterfDist 2600m
param *.connectionManager.drawMaxIntfDist false
param *.**.nic.mac1609_4.useServiceChannel false
param *.**.nic.mac1609_4.txPower 20mW
param *.**.nic.mac1609_4.bitrate 6Mbps
param *.**.nic.phy80211p.minPowerLevel -110dBm
param *.**.nic.phy80211p.useNoiseFloor true
param *.**.nic.phy80211p.noiseFloor -98dBm
param *.**.nic.phy80211p.decider "xmldoc(\"config.xml\")"
param *.**.nic.phy80211p.analogueModels "xmldoc(\"config.xml\")"
param *.**.nic.phy80211p.usePropagationDelay true
param *.**.nic.phy80211p.antenna "xmldoc(\"antenna.xml\", \"/root/Antenna[@id='monopole']\")"
param *.node[*].nic.phy80211p.antennaOffsetY "0 m"
param *.node[*].nic.phy80211p.antennaOffsetZ "1.895 m"
param *.node[*].applType "\"TraCIDemo11p\""
param *.node[*].appl.headerLength "80 bit"
param *.node[*].appl.sendBeacons false
param *.node[*].appl.dataOnSch false
param *.node[*].appl.beaconInterval 1s
param *.node[*].veinsmobility.x 0
param *.node[*].veinsmobility.y 0
param *.node[*].veinsmobility.z 0
param *.node[*].veinsmobility.setHostSpeed false

vector 0 RSUExampleScenario.node[0].veinsmobility posx ETV
vector 1 RSUExampleScenario.node[0].veinsmobility posy ETV
vector 2 RSUExampleScenario.node[0].veinsmobility speed ETV
vector 3 RSUExampleScenario.node[0].veinsmobility acceleration ETV
vector 4 RSUExampleScenario.node[0].veinsmobility co2emission ETV
vector 5 RSUExampleScenario.node[1].veinsmobility posx ETV
vector 6 RSUExampleScenario.node[1].veinsmobility posy ETV
vector 7 RSUExampleScenario.node[1].veinsmobility speed ETV
vector 8 RSUExampleScenario.node[1].veinsmobility acceleration ETV
vector 9 RSUExampleScenario.node[1].veinsmobility co2emission ETV
vector 10 RSUExampleScenario.node[2].veinsmobility posx ETV
vector 11 RSUExampleScenario.node[2].veinsmobility posy ETV
vector 12 RSUExampleScenario.node[2].veinsmobility speed ETV
vector 13 RSUExampleScenario.node[2].veinsmobility acceleration ETV
vector 14 RSUExampleScenario.node[2].veinsmobility co2emission ETV
vector 15 RSUExampleScenario.node[3].veinsmobility posx ETV
vector 16 RSUExampleScenario.node[3].veinsmobility posy ETV
vector 17 RSUExampleScenario.node[3].veinsmobility speed ETV
vector 18 RSUExampleScenario.node[3].veinsmobility acceleration ETV
vector 19 RSUExampleScenario.node[3].veinsmobility co2emission ETV
vector 20 RSUExampleScenario.node[4].veinsmobility posx ETV
vector 21 RSUExampleScenario.node[4].veinsmobility posy ETV
vector 22 RSUExampleScenario.node[4].veinsmobility speed ETV
vector 23 RSUExampleScenario.node[4].veinsmobility acceleration ETV
vector 24 RSUExampleScenario.node[4].veinsmobility co2emission ETV
vector 25 RSUExampleScenario.node[5].veinsmobility posx ETV
vector 26 RSUExampleScenario.node[5].veinsmobility posy ETV
vector 27 RSUExampleScenario.node[5].veinsmobility speed ETV
vector 28 RSUExampleScenario.node[5].veinsmobility acceleration ETV
vector 29 RSUExampleScenario.node[5].veinsmobility co2emission ETV
vector 30 RSUExampleScenario.node[6].veinsmobility posx ETV
vector 31 RSUExampleScenario.node[6].veinsmobility posy ETV
vector 32 RSUExampleScenario.node[6].veinsmobility speed ETV
vector 33 RSUExampleScenario.node[6].veinsmobility acceleration ETV
vector 34 RSUExampleScenario.node[6].veinsmobility co2emission ETV
vector 35 RSUExampleScenario.node[7].veinsmobility posx ETV
vector 36 RSUExampleScenario.node[7].veinsmobility posy ETV
vector 37 RSUExampleScenario.node[7].veinsmobility speed ETV
vector 38 RSUExampleScenario.node[7].veinsmobility acceleration ETV
vector 39 RSUExampleScenario.node[7].veinsmobility co2emission ETV
vector 40 RSUExampleScenario.node[8].veinsmobility posx ETV
vector 41 RSUExampleScenario.node[8].veinsmobility posy ETV
vector 42 RSUExampleScenario.node[8].veinsmobility speed ETV
vector 43 RSUExampleScenario.node[8].veinsmobility acceleration ETV
vector 44 RSUExampleScenario.node[8].veinsmobility co2emission ETV
vector 45 RSUExampleScenario.node[9].veinsmobility posx ETV
vector 46 RSUExampleScenario.node[9].veinsmobility posy ETV
vector 47 RSUExampleScenario.node[9].veinsmobility speed ETV
vector 48 RSUExampleScenario.node[9].veinsmobility acceleration ETV
vector 49 RSUExampleScenario.node[9].veinsmobility co2emission ETV
vector 50 RSUExampleScenario.node[10].veinsmobility posx ETV
vector 51 RSUExampleScenario.node[10].veinsmobility posy ETV
vector 52 RSUExampleScenario.node[10].veinsmobility speed ETV
vector 53 RSUExampleScenario.node[10].veinsmobility acceleration ETV
vector 54 RSUExampleScenario.node[10].veinsmobility co2emission ETV
vector 55 RSUExampleScenario.node[11].veinsmobility posx ETV
vector 56 RSUExampleScenario.node[11].veinsmobility posy ETV
vector 57 RSUExampleScenario.node[11].veinsmobility speed ETV
vector 58 RSUExampleScenario.node[11].veinsmobility acceleration ETV
vector 59 RSUExampleScenario.node[11].veinsmobility co2emission ETV
vector 60 RSUExampleScenario.node[12].veinsmobility posx ETV
vector 61 RSUExampleScenario.node[12].veinsmobility posy ETV
vector 62 RSUExampleScenario.node[12].veinsmobility speed ETV
vector 63 RSUExampleScenario.node[12].veinsmobility acceleration ETV
vector 64 RSUExampleScenario.node[12].veinsmobility co2emission ETV
vector 65 RSUExampleScenario.node[13].veinsmobility posx ETV
vector 66 RSUExampleScenario.node[13].veinsmobility posy ETV
vector 67 RSUExampleScenario.node[13].veinsmobility speed ETV
vector 68 RSUExampleScenario.node[13].veinsmobility acceleration ETV
vector 69 RSUExampleScenario.node[13].veinsmobility co2emission ETV
vector 70 RSUExampleScenario.node[14].veinsmobility posx ETV
vector 71 RSUExampleScenario.node[14].veinsmobility posy ETV
vector 72 RSUExampleScenario.node[14].veinsmobility speed ETV
vector 73 RSUExampleScenario.node[14].veinsmobility acceleration ETV
vector 74 RSUExampleScenario.node[14].veinsmobility co2emission ETV
vector 75 RSUExampleScenario.node[15].veinsmobility posx ETV
vector 76 RSUExampleScenario.node[15].veinsmobility posy ETV
vector 77 RSUExampleScenario.node[15].veinsmobility speed ETV
vector 78 RSUExampleScenario.node[15].veinsmobility acceleration ETV
vector 79 RSUExampleScenario.node[15].veinsmobility co2emission ETV
vector 80 RSUExampleScenario.node[16].veinsmobility posx ETV
vector 81 RSUExampleScenario.node[16].veinsmobility posy ETV
vector 82 RSUExampleScenario.node[16].veinsmobility speed ETV
vector 83 RSUExampleScenario.node[16].veinsmobility acceleration ETV
vector 84 RSUExampleScenario.node[16].veinsmobility co2emission ETV
vector 85 RSUExampleScenario.node[17].veinsmobility posx ETV
vector 86 RSUExampleScenario.node[17].veinsmobility posy ETV
vector 87 RSUExampleScenario.node[17].veinsmobility speed ETV
vector 88 RSUExampleScenario.node[17].veinsmobility acceleration ETV
vector 89 RSUExampleScenario.node[17].veinsmobility co2emission ETV
vector 90 RSUExampleScenario.node[18].veinsmobility posx ETV
vector 91 RSUExampleScenario.node[18].veinsmobility posy ETV
vector 92 RSUExampleScenario.node[18].veinsmobility speed ETV
vector 93 RSUExampleScenario.node[18].veinsmobility acceleration ETV
vector 94 RSUExampleScenario.node[18].veinsmobility co2emission ETV
vector 95 RSUExampleScenario.node[19].veinsmobility posx ETV
vector 96 RSUExampleScenario.node[19].veinsmobility posy ETV
vector 97 RSUExampleScenario.node[19].veinsmobility speed ETV
vector 98 RSUExampleScenario.node[19].veinsmobility acceleration ETV
vector 99 RSUExampleScenario.node[19].veinsmobility co2emission ETV
vector 100 RSUExampleScenario.node[20].veinsmobility posx ETV
vector 101 RSUExampleScenario.node[20].veinsmobility posy ETV
vector 102 RSUExampleScenario.node[20].veinsmobility speed ETV
vector 103 RSUExampleScenario.node[20].veinsmobility acceleration ETV
vector 104 RSUExampleScenario.node[20].veinsmobility co2emission ETV
vector 105 RSUExampleScenario.node[21].veinsmobility posx ETV
vector 106 RSUExampleScenario.node[21].veinsmobility posy ETV
vector 107 RSUExampleScenario.node[21].veinsmobility speed ETV
vector 108 RSUExampleScenario.node[21].veinsmobility acceleration ETV
vector 109 RSUExampleScenario.node[21].veinsmobility co2emission ETV
vector 110 RSUExampleScenario.node[22].veinsmobility posx ETV
vector 111 RSUExampleScenario.node[22].veinsmobility posy ETV
vector 112 RSUExampleScenario.node[22].veinsmobility speed ETV
vector 113 RSUExampleScenario.node[22].veinsmobility acceleration ETV
vector 114 RSUExampleScenario.node[22].veinsmobility co2emission ETV
vector 115 RSUExampleScenario.node[23].veinsmobility posx ETV
vector 116 RSUExampleScenario.node[23].veinsmobility posy ETV
vector 117 RSUExampleScenario.node[23].veinsmobility speed ETV
vector 118 RSUExampleScenario.node[23].veinsmobility acceleration ETV
vector 119 RSUExampleScenario.node[23].veinsmobility co2emission ETV
vector 120 RSUExampleScenario.node[24].veinsmobility posx ETV
vector 121 RSUExampleScenario.node[24].veinsmobility posy ETV
vector 122 RSUExampleScenario.node[24].veinsmobility speed ETV
vector 123 RSUExampleScenario.node[24].veinsmobility acceleration ETV
vector 124 RSUExampleScenario.node[24].veinsmobility co2emission ETV
vector 125 RSUExampleScenario.node[25].veinsmobility posx ETV
vector 126 RSUExampleScenario.node[25].veinsmobility posy ETV
vector 127 RSUExampleScenario.node[25].veinsmobility speed ETV
vector 128 RSUExampleScenario.node[25].veinsmobility acceleration ETV
vector 129 RSUExampleScenario.node[25].veinsmobility co2emission ETV
vector 130 RSUExampleScenario.node[26].veinsmobility posx ETV
vector 131 RSUExampleScenario.node[26].veinsmobility posy ETV
vector 132 RSUExampleScenario.node[26].veinsmobility speed ETV
0	10838 1999 2 2286 1 80 80 2085.9056783495 2450.6248001783 188215.45975012 443778115.20899
1	12837 2004 2 2286 1 80 80 1578.4613427464 2120.9360540062 152550.26339047 293857434.50402
2	14841 1978 4 2286 2 80 79 4.1061966058897 13.999815066161 1028.621816761 13759.504422815
3	16819 2095 18 2286 3 80 78 -4.5 2.2078255666373 9.8692357166618 97.559779444005
4	18914 1921 18 2286 3 80 78 0.973 8.9023657158011 212.83398904201 839.78721800896
5	20835 1934 20 2286 4 80 77 2116.6856371113 2450.4780716181 181973.71509116 430806010.28718
6	22769 1930 20 2286 4 80 77 1578.4506684253 2120.5707901428 146413.70066659 281323659.5088
7	24699 1910 39 2286 5 80 76 4.0332649588119 13.998578815588 984.56948613313 13118.721609004
8	26609 2049 41 2286 6 80 75 -4.4892687861132 2.0988350649318 9.9146622248787 86.707739992769
9	28658 1843 41 2286 6 80 75 0.973 8.7525284671264 202.20710849238 798.3372037258
10	30501 1937 60 2286 7 80 74 2138.8791204049 2450.659299592 175551.04276095 417041270.66858
11	32438 1934 60 2286 7 80 74 1578.4476927174 2120.9589145361 140306.45817366 268864668.08998
12	34372 1915 62 2286 8 80 73 3.930963162637 13.997537077854 949.97580464613 12699.195596489
13	36287 2046 86 2286 9 80 72 -4.4962264973393 1.9953480610903 4.4871935433172 75.869246979645
14	38333 1835 86 2286 9 80 72 0.973 8.2469806235914 180.73191677968 634.04548580988
15	40168 1865 88 2286 10 80 71 2162.5677132215 2450.5176811377 169084.17170807 403093133.98154
16	42033 1870 88 2286 10 80 71 1578.4548774119 2120.90069908 134131.67318024 256126209.86835
17	43903 1846 118 2286 11 80 70 4.0076977833542 13.999869057706 924.38645679373 12482.295636563
18	45749 1970 120 2286 12 80 69 -4.4516438954996 2.1600366940722 8.6746022077813 57.875848959746
19	47719 1772 120 2286 12 80 69 0.973 8.3694083781091 176.551686649 636.80946416472
20	49491 1793 150 2286 13 80 68 2223.1179117287 2450.2645866362 162843.93462142 390202793.05578
21	51284 1787 150 2286 13 80 68 1578.4413889889 2120.7883864809 127057.87565339 239988381.05465
22	53071 1768 152 2286 14 80 67 4.1202440707026 13.992245385351 858.77929821313 11287.106031543
23	54839 1890 184 2286 15 80 66 -3.0438156671366 2.2053875824949 9.7871985224086 45.050600000243
24	56729 1720 184 2286 15 80 66 0.973 8.3105242583869 164.59174141829 559.46120617023
25	58449 1712 186 2286 16 80 65 2250.264247493 2450.2291497608 156039.78289411 374762657.52653
26	60161 1711 186 2286 16 80 65 1578.4544820301 2120.7722106203 121207.91027537 228428893.81248
27	61872 1682 220 2286 17 80 64 4.11254450365 13.998108282317 831.88144522774 11109.469207269
28	63554 1792 222 2286 18 80 63 -2.7630936457253 2.2240570376068 9.8571198631867 50.369501126909
29	65346 1610 222 2286 18 80 63 0.973 8.8530434321966 163.84217712589 617.6484388414
30	66956 1640 257 2286 19 80 62 2294.5128275382 2450.4280289282 149236.69116796 359331209.86615
31	68596 1636 257 2286 19 80 62 1578.4572625495 2120.8566767089 114736.74149644 214550092.51792
32	70232 1605 259 2286 20 80 61 4.067372106413 13.999156328384 786.81438781997 10432.798210601
33	71837 1703 296 2286 21 80 60 -4.5 2.2806860777922 9.8798591783139 56.606694201456
34	73540 1557 296 2286 21 80 60 0.973 7.9969762628647 156.92869328829 572.15710897037
35	75097 1555 298 2286 22 80 59 2334.0494864163 2450.4365012295 142484.0518192 344175239.43622
36	76652 1560 298 2286 22 80 59 1578.4561478766 2119.9059554357 106470.92407579 193753670.17945
37	78212 1534 336 2286 23 80 58 4.0608742667126 13.999091608806 667.48775901451 7890.9103980749
38	79746 1635 338 2286 24 80 57 -4.094616017928 2.2555459074327 9.9382173420935 43.527246253215
39	81381 1494 338 2286 24 80 57 0.973 7.8139621935621 136.79963829194 452.01297759506
40	82875 1477 376 2286 25 80 56 2333.8304737648 2450.3239084678 135304.61913981 326990095.48594
41	84352 1483 376 2286 25 80 56 1578.4503688179 2110.9867542973 100830.77835912 182990595.64046
42	85835 1452 378 2286 26 80 55 4.0643546214392 13.915266969802 647.95727316711 7874.9679448419
43	87287 1530 418 2286 27 80 54 -2.5356489940785 2.2392650089366 9.7165402227633 46.693987440526
44	88817 1347 418 2286 27 80 54 0.973 8.1642209683009 136.49112835065 539.97373667826
45	90164 1402 420 2286 28 80 53 2334.4106986645 2450.5540833102 128103.01433532 309696421.68697
46	91566 1401 420 2286 28 80 53 1578.4516975414 2094.5392225562 95140.068240215 172065732.85987
47	92967 1374 462 2286 29 80 52 3.8828872453123 13.97994910137 629.44874968124 7891.8049874658
48	94341 1435 464 2286 30 80 51 -2.1823455372089 2.1636936872965 9.7814682104905 47.600127100669
49	95776 1283 464 2286 30 80 51 0.973 8.0769545765064 134.83472396819 549.36317119401
50	97059 1323 507 2286 31 80 50 2334.1012518223 2450.3828549772 120834.68734445 292084005.32478
51	98382 1323 507 2286 31 80 50 1578.4486005865 2075.9965244858 89365.104160724 160851333.1998
52	99705 1295 509 2286 32 80 49 4.1947202222332 13.991812187003 610.89772948249 7884.8163127035
53	101000 1362 554 2286 33 80 48 -3.1158763178945 2.2461710704397 9.2866075582723 53.326978070554
54	102362 1224 554 2286 33 80 48 0.973 8.8976355453378 132.86337598004 563.72589238348
55	103586 1247 556 2286 34 80 47 2334.3055988246 2450.2307157078 113483.81382195 274076291.54822
56	104833 1249 556 2286 34 80 47 1578.4356359942 2044.899932079 83195.58574775 148188224.9916
57	106082 1216 605 2286 35 80 46 3.8489417596173 13.984478115658 580.17600594341 7570.0662514762
58	107298 1289 607 2286 36 80 45 -3.7792833418176 2.3961217227788 10.101726193352 52.878907403758
59	108587 1175 607 2286 36 80 45 0.973 8.73746890554 126.09853967526 515.97738881854
60	109762 1169 654 2286 37 80 44 2333.9421702074 2450.6306422632 106136.08765553 256081476.78265
61	110931 1167 654 2286 37 80 44 1578.451217806 1997.5033448767 76966.583661582 135312393.94856
62	112098 1145 656 2286 38 80 43 3.9219617499206 13.999378900521 533.11529843014 6862.0494286959
63	113243 1185 704 2286 39 80 42 -4.5 2.0558448842494 9.9686619247166 51.040984021831
64	114428 1099 704 2286 39 80 42 0.973 8.3627117543138 117.97626982266 478.07030421938
65	115527 1093 706 2286 40 80 41 2334.8579254844 2450.1499671022 98848.726168127 238375402.22676
66	116620 1083 706 2286 40 80 41 1578.4448455973 1963.0781276906 71183.226476762 124112494.63395
67	117703 1063 756 2286 41 80 40 4.0161385181755 13.982592359467 498.16579362427 6455.7561198324
68	118766 1113 758 2286 42 80 39 -2.3446006342261 2.0804082644917 9.8688334416086 41.404911680192
69	119879 996 758 2286 42 80 39 0.973 8.5606523284014 113.33432172696 479.87689634268
70	120875 1012 808 2286 43 80 38 2334.4301713972 2450.6330954138 91533.051563768 220533536.38214
71	121887 1014 808 2286 43 80 38 1578.4619682319 1928.0700088842 65463.811575337 113174063.66996
72	122901 988 810 2286 44 80 37 3.9992962979057 13.997367390029 463.9438626548 6061.5915084176
73	123889 1032 863 2286 45 80 36 -3.8456400924426 2.1980071439291 9.9448442968263 51.535095601706
74	124921 940 863 2286 45 80 36 0.973 8.7718288962126 109.81534136114 500.75067623965
75	125861 936 865 2286 46 80 35 2334.3497222776 2447.5863594747 84187.449119324 202547401.68224
76	126797 939 865 2286 46 80 35 1578.4567965213 1886.1713816989 59725.152613077 102193491.14616
77	127736 913 922 2286 47 80 34 4.1510441398274 13.985586905845 422.10508610873 5479.419090415
78	128649 942 924 2286 48 80 33 -4.4635479538827 2.0671690396545 9.7592307554905 53.075796013006
79	129591 857 924 2286 48 80 33 0.973 8.0918748703575 103.27425256385 477.5560895633
80	130448 857 978 2286 49 80 32 2334.7865815668 2444.4629483517 76843.57387822 184570132.95217
81	131305 860 978 2286 49 80 32 1578.4441374587 1843.2183195334 54071.874386285 91553327.304006
82	132165 833 980 2286 50 80 31 3.8447853377257 13.992536327657 378.47477725173 4864.1474530073
83	132998 855 1036 2286 51 80 30 -4.4674361181588 2.078282451923 10.104509660352 50.845595073051
84	133853 778 1036 2286 51 80 30 0.973 8.7472268623497 96.472237703038 447.57173567545
85	134631 779 1038 2286 52 80 29 2333.8836589833 2435.0191372258 69136.771298116 164853096.2921
86	135410 776 1038 2286 52 80 29 1578.4585047252 1732.851144542 48031.202969864 79617696.943088
87	136186 749 1101 2286 53 80 28 3.8698786158062 12.001522557941 266.78468321527 2614.5032951901
88	136935 779 1103 2286 54 80 27 -2.7754211128362 2.0160195135884 8.0837695616381 26.329449760474
89	137714 711 1103 2286 54 80 27 0.973 6.7330751485819 67.983089879102 241.38467448053
90	138425 699 1169 2286 55 80 26 2334.635949342 2431.8155509136 61922.820472431 147502042.70468
91	139124 700 1169 2286 55 80 26 1578.4678993914 1711.769917665 42992.092730523 71143715.125434
92	139824 675 1171 2286 56 80 25 4.0700236807532 12.951351441674 243.91879994863 2475.4124248051
93	140499 682 1238 2286 57 80 24 -1.9890481690938 2.3297191780875 6.5303783386491 32.766767059829
94	141181 588 1238 2286 57 80 24 0.973 7.5386032280172 63.672182365904 282.33285827974
95	141769 616 1240 2286 58 80 23 2334.0024995889 2423.5398541616 54740.890722941 130303044.35353
96	142385 620 1240 2286 58 80 23 1578.4570502462 1700.9504815331 37919.182415526 62564567.829215
97	143005 593 1314 2286 59 80 22 3.8447639940612 13.031157599441 226.89736207057 2487.3597436374
98	143598 594 1316 2286 60 80 21 -1.7387635858037 1.9814613342541 3.1639333002574 24.337811143451
99	144192 466 1316 2286 60 80 21 0.973 7.2530068360154 51.790238470396 214.91096452855
100	144658 557 1394 2286 61 80 20 2334.2278371524 2414.8844513154 47545.699757885 113043007.88508
101	145215 555 1394 2286 61 80 20 1578.4478435991 1699.5923423013 32875.462286398 54081324.549511
102	145770 528 1396 2286 62 80 19 4.018615917157 13.970749160051 212.01424855636 2526.6436052382
103	146298 536 1476 2286 63 80 18 -1.4929430295375 2.1492465194734 3.9745528514872 25.777473191546
104	146834 442 1476 2286 63 80 18 0.973 8.1667304192483 51.826925633579 250.17066623332
105	147276 474 1478 2286 64 80 17 2333.8926936223 2414.8420826617 40315.969841872 95622361.116508
106	147750 475 1478 2286 64 80 17 1578.4634011481 1695.2986774063 27725.997027582 45246639.093632
107	148225 446 1568 2286 65 80 16 4.2842987557744 12.295276953945 175.09858218217 2010.3434856062
108	148671 446 1570 2286 66 80 15 -0.093660827081186 2.0492601770512 7.9601236900552 14.533690148284
109	149117 419 1570 2286 66 80 15 1.5893789470923 7.3415326447534 44.674788953139 180.60273073332
110	149536 390 1664 2286 67 80 14 2334.1342350811 2414.8461773879 33234.644115163 78906903.292866
111	149926 391 1664 2286 67 80 14 1578.4618975855 1684.1865080334 22700.120128555 36824432.509812
112	150317 361 1666 2286 68 80 13 4.1832233416825 13.95514258502 152.25775383396 1923.1349747176
113	150678 352 1762 2286 69 80 12 -0.10355824014638 2.1458663539286 9.6408127769981 19.338863759546
114	151030 335 1762 2286 69 80 12 1.6780100664083 7.8311198804753 46.037051069911 244.27691420675
115	151365 305 1764 2286 70 80 11 2352.5099029642 2414.8737180224 26256.119650229 62675898.828673
116	151670 307 1764 2286 70 80 11 1578.4517848091 1636.9084215444 17630.091414532 28260755.751058
117	151977 280 1866 2286 71 80 10 4.0859593419879 10.375441872943 89.632424574527 849.14152552074
118	152257 266 1868 2286 72 80 9 -0.075924052584451 1.9185597577179 6.213558478371 10.928969949883
119	152523 252 1868 2286 72 80 9 1.5193220070009 6.1139389675705 26.965372836199 104.13034579579
120	152775 222 1967 2286 73 80 8 2370.4989479294 2414.8769514603 19171.514409094 45945121.194365
121	152997 224 1967 2286 73 80 8 1578.4505975069 1618.6879972629 12746.820328954 20311733.825276
122	153221 195 1969 2286 74 80 7 4.0735588402093 12.998777343629 65.349956161857 685.68065146413
123	153416 170 2069 2286 75 80 6 0.045321208788081 2.2564944986859 8.9252185034199 16.660960256228
124	153586 168 2069 2286 75 80 6 2.0819381521331 8.3392083846763 30.693032789782 178.86962374241
125	153754 139 2071 2286 76 80 5 2395.6944575682 2414.8732395561 12031.769983704 28952933.355355
126	153893 140 2071 2286 76 80 5 1578.4519604994 1593.1684170682 7919.3624969693 12543408.151547
127	154033 112 2176 2286 77 80 4 4.0635240824116 10.046968652414 28.328810600109 220.51292699998
128	154145 84 2178 2286 78 80 3 1.9431141708884 2.0509393013455 5.9834445700026 11.939721638792
129	154229 84 2178 2286 78 80 3 4.4483142439603 6.3932525708783 16.276999165658 90.205102888401
130	154313 56 2284 2286 79 80 2 2411.9468780267 2414.8461739381 4826.7930519648 11648969.786206
131	154369 56 2284 2286 79 80 2 1578.4618988531 1579.5265051797 3157.9884040328 4986445.946696
132	154425 28 2286 2286 80 80 1 4.0267229073465 4.0267229073465 4.0267229073465 16.214497372549
vector 133 RSUExampleScenario.node[26].veinsmobility acceleration ETV
vector 134 RSUExampleScenario.node[26].veinsmobility co2emission ETV
vector 135 RSUExampleScenario.node[27].veinsmobility posx ETV
vector 136 RSUExampleScenario.node[27].veinsmobility posy ETV
vector 137 RSUExampleScenario.node[27].veinsmobility speed ETV
vector 138 RSUExampleScenario.node[27].veinsmobility acceleration ETV
vector 139 RSUExampleScenario.node[27].veinsmobility co2emission ETV
vector 140 RSUExampleScenario.node[28].veinsmobility posx ETV
vector 141 RSUExampleScenario.node[28].veinsmobility posy ETV
vector 142 RSUExampleScenario.node[28].veinsmobility speed ETV
vector 143 RSUExampleScenario.node[28].veinsmobility acceleration ETV
vector 144 RSUExampleScenario.node[28].veinsmobility co2emission ETV
vector 145 RSUExampleScenario.node[29].veinsmobility posx ETV
vector 146 RSUExampleScenario.node[29].veinsmobility posy ETV
vector 147 RSUExampleScenario.node[29].veinsmobility speed ETV
vector 148 RSUExampleScenario.node[29].veinsmobility acceleration ETV
vector 149 RSUExampleScenario.node[29].veinsmobility co2emission ETV
vector 150 RSUExampleScenario.node[30].veinsmobility posx ETV
vector 151 RSUExampleScenario.node[30].veinsmobility posy ETV
vector 152 RSUExampleScenario.node[30].veinsmobility speed ETV
vector 153 RSUExampleScenario.node[30].veinsmobility acceleration ETV
vector 154 RSUExampleScenario.node[30].veinsmobility co2emission ETV
vector 155 RSUExampleScenario.node[31].veinsmobility posx ETV
vector 156 RSUExampleScenario.node[31].veinsmobility posy ETV
vector 157 RSUExampleScenario.node[31].veinsmobility speed ETV
vector 158 RSUExampleScenario.node[31].veinsmobility acceleration ETV
vector 159 RSUExampleScenario.node[31].veinsmobility co2emission ETV
vector 160 RSUExampleScenario.node[32].veinsmobility posx ETV
vector 161 RSUExampleScenario.node[32].veinsmobility posy ETV
vector 162 RSUExampleScenario.node[32].veinsmobility speed ETV
vector 163 RSUExampleScenario.node[32].veinsmobility acceleration ETV
vector 164 RSUExampleScenario.node[32].veinsmobility co2emission ETV
vector 165 RSUExampleScenario.node[33].veinsmobility posx ETV
vector 166 RSUExampleScenario.node[33].veinsmobility posy ETV
vector 167 RSUExampleScenario.node[33].veinsmobility speed ETV
vector 168 RSUExampleScenario.node[33].veinsmobility acceleration ETV
vector 169 RSUExampleScenario.node[33].veinsmobility co2emission ETV
vector 170 RSUExampleScenario.node[34].veinsmobility posx ETV
vector 171 RSUExampleScenario.node[34].veinsmobility posy ETV
vector 172 RSUExampleScenario.node[34].veinsmobility speed ETV
vector 173 RSUExampleScenario.node[34].veinsmobility acceleration ETV
vector 174 RSUExampleScenario.node[34].veinsmobility co2emission ETV
vector 175 RSUExampleScenario.node[35].veinsmobility posx ETV
vector 176 RSUExampleScenario.node[35].veinsmobility posy ETV
vector 177 RSUExampleScenario.node[35].veinsmobility speed ETV
vector 178 RSUExampleScenario.node[35].veinsmobility acceleration ETV
vector 179 RSUExampleScenario.node[35].veinsmobility co2emission ETV
vector 180 RSUExampleScenario.node[36].veinsmobility posx ETV
vector 181 RSUExampleScenario.node[36].veinsmobility posy ETV
vector 182 RSUExampleScenario.node[36].veinsmobility speed ETV
vector 183 RSUExampleScenario.node[36].veinsmobility acceleration ETV
vector 184 RSUExampleScenario.node[36].veinsmobility co2emission ETV
vector 185 RSUExampleScenario.node[37].veinsmobility posx ETV
vector 186 RSUExampleScenario.node[37].veinsmobility posy ETV
vector 187 RSUExampleScenario.node[37].veinsmobility speed ETV
vector 188 RSUExampleScenario.node[37].veinsmobility acceleration ETV
vector 189 RSUExampleScenario.node[37].veinsmobility co2emission ETV
vector 190 RSUExampleScenario.node[38].veinsmobility posx ETV
vector 191 RSUExampleScenario.node[38].veinsmobility posy ETV
vector 192 RSUExampleScenario.node[38].veinsmobility speed ETV
vector 193 RSUExampleScenario.node[38].veinsmobility acceleration ETV
vector 194 RSUExampleScenario.node[38].veinsmobility co2emission ETV
vector 195 RSUExampleScenario.node[39].veinsmobility posx ETV
vector 196 RSUExampleScenario.node[39].veinsmobility posy ETV
vector 197 RSUExampleScenario.node[39].veinsmobility speed ETV
vector 198 RSUExampleScenario.node[39].veinsmobility acceleration ETV
vector 199 RSUExampleScenario.node[39].veinsmobility co2emission ETV
vector 200 RSUExampleScenario.node[40].veinsmobility posx ETV
vector 201 RSUExampleScenario.node[40].veinsmobility posy ETV
vector 202 RSUExampleScenario.node[40].veinsmobility speed ETV
vector 203 RSUExampleScenario.node[40].veinsmobility acceleration ETV
vector 204 RSUExampleScenario.node[40].veinsmobility co2emission ETV
vector 205 RSUExampleScenario.node[41].veinsmobility posx ETV
vector 206 RSUExampleScenario.node[41].veinsmobility posy ETV
vector 207 RSUExampleScenario.node[41].veinsmobility speed ETV
vector 208 RSUExampleScenario.node[41].veinsmobility acceleration ETV
vector 209 RSUExampleScenario.node[41].veinsmobility co2emission ETV
vector 210 RSUExampleScenario.node[42].veinsmobility posx ETV
vector 211 RSUExampleScenario.node[42].veinsmobility posy ETV
vector 212 RSUExampleScenario.node[42].veinsmobility speed ETV
vector 213 RSUExampleScenario.node[42].veinsmobility acceleration ETV
vector 214 RSUExampleScenario.node[42].veinsmobility co2emission ETV
vector 215 RSUExampleScenario.node[43].veinsmobility posx ETV
vector 216 RSUExampleScenario.node[43].veinsmobility posy ETV
vector 217 RSUExampleScenario.node[43].veinsmobility speed ETV
vector 218 RSUExampleScenario.node[43].veinsmobility acceleration ETV
vector 219 RSUExampleScenario.node[43].veinsmobility co2emission ETV
vector 220 RSUExampleScenario.node[44].veinsmobility posx ETV
vector 221 RSUExampleScenario.node[44].veinsmobility posy ETV
vector 222 RSUExampleScenario.node[44].veinsmobility speed ETV
vector 223 RSUExampleScenario.node[44].veinsmobility acceleration ETV
vector 224 RSUExampleScenario.node[44].veinsmobility co2emission ETV
vector 225 RSUExampleScenario.node[45].veinsmobility posx ETV
vector 226 RSUExampleScenario.node[45].veinsmobility posy ETV
vector 227 RSUExampleScenario.node[45].veinsmobility speed ETV
vector 228 RSUExampleScenario.node[45].veinsmobility acceleration ETV
vector 229 RSUExampleScenario.node[45].veinsmobility co2emission ETV
vector 230 RSUExampleScenario.node[46].veinsmobility posx ETV
vector 231 RSUExampleScenario.node[46].veinsmobility posy ETV
vector 232 RSUExampleScenario.node[46].veinsmobility speed ETV
vector 233 RSUExampleScenario.node[46].veinsmobility acceleration ETV
vector 234 RSUExampleScenario.node[46].veinsmobility co2emission ETV
vector 235 RSUExampleScenario.node[47].veinsmobility posx ETV
vector 236 RSUExampleScenario.node[47].veinsmobility posy ETV
vector 237 RSUExampleScenario.node[47].veinsmobility speed ETV
0	161299 1673 2397 7977 81 143 63 1453.1313696638 2076.3779145891 111477.19834723 199324131.86597
1	162972 1673 2397 7977 81 143 63 1411.2766984925 2008.4287304608 107380.42167873 185000069.20362
2	164645 1675 2397 7977 81 143 63 13.871336730926 13.995929163198 877.45052836334 12221.015577625
3	166320 1836 2397 7977 81 143 63 -0.11731649283087 0.11500627390342 -0.04301238294458 0.15811400590053
4	168156 1677 2397 7977 81 143 63 1.633853726441 2.4259796074968 127.85677146213 261.31583503048
5	169833 1676 2397 7977 81 143 63 1490.0699286098 2107.1659774036 113521.36888266 206605896.56034
6	171509 1678 2397 7977 81 143 63 1437.3080721097 2041.2950219223 109356.66893938 191818284.21716
7	173187 1676 2397 7977 81 143 63 13.87004156227 13.999323605334 877.98856340318 12236.007062278
8	174863 1841 2397 7977 81 143 63 -0.1004943326558 0.10682315822458 0.00038659464092738 0.16596064632463
9	176704 1678 2397 7977 81 143 63 1.6918937064968 2.3980130110749 128.0585585683 262.23123973976
10	178382 1738 2397 7977 81 143 63 1520.7834167578 2132.1538470712 115277.65711189 212972644.74706
11	180120 1738 2397 7977 81 143 63 1461.5368422121 2067.9696007185 111086.96193949 197882998.01031
12	181858 1741 2397 7977 81 143 63 10.470719517201 13.997721134285 873.06676301026 12112.756012985
13	183599 1888 2397 7977 81 143 63 -0.113292353414 2.0878022219194 5.4563155587096 10.531517490833
14	185487 1737 2397 7977 81 143 63 1.6472135697639 8.2177466262902 143.51077764914 407.06094945401
15	187224 1737 2397 7977 81 143 63 1552.20593978 2151.8935926168 117105.16346372 219690516.36971
16	188961 1741 2397 7977 81 143 63 1488.7174936254 2082.7361728121 112897.30045814 204307715.04555
17	190702 1738 2397 7977 81 143 63 6.7222580367331 13.990105855605 857.04518936325 11758.795387827
18	192440 1883 2397 7977 81 143 63 -4.5 2.1248851186968 1.268288811965 35.893814645692
19	194323 1718 2397 7977 81 143 63 0.973 7.7737177996377 144.58970590758 425.63379373051
20	196041 1739 2397 7977 81 143 63 1598.0256129091 2209.6039438429 119938.68188887 230335425.42318
21	197780 1742 2397 7977 81 143 63 1533.7809390817 2108.8805809543 115629.28180259 214158872.70624
22	199522 1741 2397 7977 81 143 63 7.2008205324427 13.998402075595 858.56043227191 11789.48443417
23	201263 1895 2397 7977 81 143 63 -4.4202670209802 2.0694881742587 -0.029602721210104 37.559253559258
24	203158 1720 2397 7977 81 143 63 0.973 7.9981972462927 143.87966409373 414.24668378157
25	204878 1736 2397 7977 81 143 63 1621.6511605546 2236.4483706289 121412.94547909 235970703.95841
26	206614 1738 2397 7977 81 143 63 1557.49918871 2113.9554827726 116996.86691252 219148678.02804
27	208352 1736 2397 7977 81 143 63 6.6251523498349 13.995675757974 851.74246793417 11631.376792711
28	210088 1900 2397 7977 81 143 63 -4.1476450008758 2.0798130694125 -0.015901036269497 39.402320502074
29	211988 1703 2397 7977 81 143 63 0.973 7.8165561438188 144.73830760939 427.46437919215
30	213691 1742 2397 7977 81 143 63 1649.9116426066 2280.5779648197 123257.91734402 243179382.13228
31	215433 1740 2397 7977 81 143 63 1585.1948150778 2116.6226407383 118573.72041736 224961661.78352
32	217173 1738 2397 7977 81 143 63 6.3360144175804 13.997822344762 855.77326166139 11724.677126022
33	218911 1891 2397 7977 81 143 63 -4.4802841587956 2.4234314252366 0.021556065012701 39.389996620956
34	220802 1697 2397 7977 81 143 63 0.973 7.8926133649108 143.23402730549 423.53589455313
35	222499 1735 2397 7977 81 143 63 1735.6617277965 2400.1562547906 128927.72841666 266059334.50862
36	224234 1740 2397 7977 81 143 63 1669.2309725657 2120.6614999305 122845.94474423 240938570.92072
37	225974 1740 2397 7977 81 143 63 7.4311977129773 13.999109892272 856.40861175399 11739.903888318
38	227714 1884 2397 7977 81 143 63 -4.4823587748475 1.9231716386927 -0.0092530499165875 33.600996668556
39	229598 1706 2397 7977 81 143 63 0.973 7.9715287769973 142.23844305301 403.51435910446
40	231304 1738 2397 7977 81 143 63 1754.8574818516 2418.4805030107 130091.49648807 270836885.173
41	233042 1740 2397 7977 81 143 63 1688.0430519618 2120.8279265687 123688.59441911 244127796.33482
42	234782 1738 2397 7977 81 143 63 7.522841975327 13.996565480784 848.57459211321 11556.442669063
43	236520 1876 2397 7977 81 143 63 -3.3070113040032 2.0535479463381 0.10833936005952 26.492233659446
44	238396 1694 2397 7977 81 143 63 0.973 8.3114076733424 140.92861649164 404.95994397824
45	240090 1738 2397 7977 81 143 63 1773.4292244352 2433.0579034877 131218.72923472 275508017.78118
46	241828 1740 2397 7977 81 143 63 1706.2435923014 2120.7919995487 124460.58079479 247060284.03664
47	243568 1742 2397 7977 81 143 63 7.6971048517949 13.999235930033 842.11469410469 11406.63645647
48	245310 1886 2397 7977 81 143 63 -2.5256712424416 2.1497999797249 0.22850237462153 24.180012837387
49	247196 1685 2397 7977 81 143 63 0.973 8.3259780451779 139.97915851086 413.73680091064
50	248881 1741 2397 7977 81 143 63 1791.4704871527 2438.557451396 132305.0064705 280042556.43873
51	250622 1740 2397 7977 81 143 63 1723.9242557278 2120.7039867258 125154.76969123 249700885.40831
52	252362 1739 2397 7977 81 143 63 7.3366089927091 13.999328219597 834.81890222501 11229.651657486
53	254101 1876 2397 7977 81 143 63 -1.8145632250576 1.9305581291299 0.43617603584725 20.95817398762
54	255977 1688 2397 7977 81 143 63 0.973 7.5774642870421 140.76856934501 403.06774625194
55	257665 1737 2397 7977 81 143 63 1810.2341285112 2440.2605161637 133585.62088594 285492686.97295
56	259402 1733 2397 7977 81 143 63 1742.2806508224 2120.7777846977 125783.34427859 252083118.19263
57	261135 1740 2397 7977 81 143 63 6.9009626829425 13.999905188144 838.53569489876 11315.353157116
58	262875 1885 2397 7977 81 143 63 -1.971901039316 2.0403359166486 -0.031259778661187 21.633745129848
59	264760 1667 2397 7977 81 143 63 0.973 8.0809799824166 137.84039504779 395.42129245563
60	266427 1734 2397 7977 81 143 63 1834.0237706548 2444.0134073331 135346.64434595 293095228.95658
61	268161 1737 2397 7977 81 143 63 1764.8747464931 2120.9520459101 126373.56518992 254289387.82597
62	269898 1741 2397 7977 81 143 63 7.7589410174757 13.999056914009 853.67879913976 11661.248828121
63	271639 1867 2397 7977 81 143 63 -2.1561265404488 2.171357678452 -0.00045824310742404 22.455370518092
64	273506 1685 2397 7977 81 143 63 0.973 8.7089421533914 139.92381340215 415.48225466022
65	275191 1737 2397 7977 81 143 63 1857.9252677221 2446.771766574 136831.99392176 299465945.11099
66	276928 1739 2397 7977 81 143 63 1789.1721174931 2120.7260294929 126894.49416561 256245953.06756
67	278667 1738 2397 7977 81 143 63 6.7254223474334 13.999926172604 854.01857954852 11678.169318554
68	280405 1888 2397 7977 81 143 63 -3.7634138144476 2.2943333165627 0.038113099322654 33.696017890187
69	282293 1700 2397 7977 81 143 63 0.973 8.3929007941049 142.90450303035 420.61067182926
70	283993 1736 2397 7977 81 143 63 1882.0398552172 2449.5770563361 138290.00136633 305759312.1981
71	285729 1737 2397 7977 81 143 63 1813.8833053717 2120.9558397355 127274.4390817 257668832.86386
72	287466 1734 2397 7977 81 143 63 7.9598095710251 13.999656618503 854.91098867065 11696.488559515
73	289200 1884 2397 7977 81 143 63 -2.995629766743 2.110398761523 -0.028898273904341 28.871424201392
74	291084 1706 2397 7977 81 143 63 0.973 8.0230988638379 141.24087543013 411.51930673993
75	292790 1744 2397 7977 81 143 63 1910.9984701893 2450.6169209509 139957.5823666 313000655.08553
76	294534 1737 2397 7977 81 143 63 1843.5583630688 2120.934805207 127536.4936437 258646336.91122
77	296271 1738 2397 7977 81 143 63 7.498422242219 13.997592851426 855.82881457637 11723.679673401
78	298009 1896 2397 7977 81 143 63 -4.4635536425416 1.9924787498568 -0.0011948966677302 34.076928112883
79	299905 1706 2397 7977 81 143 63 0.973 8.4312780203507 141.73508272909 411.50703930567
80	301611 1738 2397 7977 81 143 63 1940.4428390507 2450.5254289502 141562.49296058 320014861.89417
81	303349 1737 2397 7977 81 143 63 1857.1320235133 2120.6608228572 127573.36256249 258779672.67181
82	305086 1739 2397 7977 81 143 63 7.6656385186951 13.994805302613 856.72179662257 11743.443446163
83	306825 1876 2397 7977 81 143 63 -4.5 1.9304535800335 0.0025578700867488 32.843778027161
84	308701 1703 2397 7977 81 143 63 0.973 8.3619442832883 141.3470780058 403.69910472148
85	310404 1739 2397 7977 81 143 63 2059.2853747864 2450.3597394241 146929.48686225 343818935.10109
86	312143 1738 2397 7977 81 143 63 1744.7134336196 2120.5688971151 126440.92790941 254590274.82896
87	313881 1739 2397 7977 81 143 63 7.5067907838287 13.990378188035 801.38972000132 10310.488959742
88	315620 1865 2397 7977 81 143 63 -4.5 2.1310822762968 2.0030275073664 39.398932118104
89	317485 1721 2397 7977 81 143 63 0.973 8.5377272186901 144.28290463172 458.67810475933
90	319206 1740 2397 7977 81 143 63 2078.9754922544 2450.4524190207 147498.16830326 346358215.79931
91	320946 1738 2397 7977 81 143 63 1723.421417038 2120.7316811346 126101.42164156 253350290.863
92	322684 1738 2397 7977 81 143 63 7.5507197746227 13.957018211056 794.27941075452 10143.791909595
93	324422 1874 2397 7977 81 143 63 -3.293089319321 2.0991234644549 3.3509957437484 31.538359657237
94	326296 1692 2397 7977 81 143 63 0.973 8.696925829343 145.79500372601 482.20996167198
95	327988 1736 2397 7977 81 143 63 2096.5645928823 2450.4624753713 148014.93034118 348677580.64321
96	329724 1740 2397 7977 81 143 63 1703.8592715813 2120.8961891662 125672.33629958 251772802.57035
97	331464 1734 2397 7977 81 143 63 7.1444443500028 13.990537970087 786.37313785647 9969.2343986997
98	333198 1865 2397 7977 81 143 63 -2.5445133379498 2.222100084126 6.8766673692172 37.625294547889
99	335063 1671 2397 7977 81 143 63 0.973 8.3204552480567 153.28994124624 567.05893603843
100	336734 1804 2397 7977 81 143 63 2113.3779658214 2450.3554975685 148477.76182834 350756879.92333
101	338538 1800 2397 7977 81 143 63 1700.4037794685 2120.5997553328 125163.83992954 249897183.21887
102	340338 1805 2397 7977 81 143 63 6.4930630988118 13.968358664801 776.86272862631 9787.9902682379
103	342143 1919 2397 7977 81 143 63 -2.198287774594 2.3276957343216 5.8979973368334 45.716242187921
104	344062 1711 2397 7977 81 143 63 0.973 8.0770804009282 155.47918905104 578.88603297986
105	345773 1800 2397 7977 81 143 63 2129.3070753076 2450.1610031507 148806.95393502 352208180.13057
106	347573 1802 2397 7977 81 143 63 1696.9581651138 2120.7689092075 124378.05125665 247001532.78719
107	349375 1800 2397 7977 81 143 63 6.9384423191984 13.993739581739 789.31872656307 10119.03331686
108	351175 1914 2397 7977 81 143 63 -2.965684290064 2.279591250075 -1.114312989157 47.516766828734
109	353089 1674 2397 7977 81 143 63 0.973 8.0062312204286 144.73401261242 488.67760468772
110	354763 1799 2397 7977 81 143 63 2141.4686438205 2450.1550019225 149118.31162844 353591628.81923
111	356562 1804 2397 7977 81 143 63 1693.3077520663 2120.9453101354 123697.40338351 244459465.21642
112	358366 1803 2397 7977 81 143 63 7.176029561783 13.990375978411 794.45168659304 10268.470495496
113	360169 1925 2397 7977 81 143 63 -2.4922948446457 2.2485749843647 -6.4688570355261 39.460430854018
114	362094 1655 2397 7977 81 143 63 0.973 7.8077049573239 133.5710104854 399.84382417611
115	363749 1797 2397 7977 81 143 63 2220.754392489 2450.5820902542 150996.95446648 362147200.48013
116	365546 1799 2397 7977 81 143 63 1644.2670794735 2120.7082483275 120237.39648142 231345886.89253
117	367345 1802 2397 7977 81 143 63 7.5457496343406 13.9954915611 772.35237847981 9608.4505106689
118	369147 1944 2397 7977 81 143 63 -1.8757059074481 2.0294341745344 3.6159902245806 14.42718020042
119	371091 1785 2397 7977 81 143 63 0.973 7.429044537753 135.03015364286 358.70550112543
120	372876 1801 2397 7977 81 143 63 2239.781779873 2450.1930519535 151161.09868944 362893489.22385
121	374677 1804 2397 7977 81 143 63 1627.8197878981 2120.8731574817 119497.5846346 228595857.60378
122	376481 1798 2397 7977 81 143 63 7.5998815443674 13.990983375695 777.24068108672 9738.7272201408
123	378279 1928 2397 7977 81 143 63 -1.3746847264637 2.0577420714172 0.99220603206587 16.948268815342
124	380207 1720 2397 7977 81 143 63 0.973 8.3363054247112 129.47847023519 375.46041754269
125	381927 1799 2397 7977 81 143 63 2258.8936739471 2450.61204914 151360.70966201 363814676.15627
126	383726 1799 2397 7977 81 143 63 1601.0289194789 2120.5746393418 118666.05397846 225543618.31023
127	385525 1799 2397 7977 81 143 63 7.251207953206 13.995084378871 795.32710749469 10194.772250727
128	387324 1931 2397 7977 81 143 63 -1.5678357862427 1.9660620900462 3.9031793576465 25.827032666123
129	389255 1695 2397 7977 81 143 63 0.973 8.6102118406059 143.41672147221 505.10403707625
130	390950 1803 2397 7977 81 143 63 2277.9934346342 2450.245049579 151545.34979097 364672095.29104
131	392753 1801 2397 7977 81 143 63 1581.4583984045 2120.7444728371 117622.99805107 221776139.88317
132	394554 1798 2397 7977 81 143 63 5.9477333564631 13.995347008838 799.55012739404 10343.172512878
133	396352 1912 2397 7977 81 143 63 -1.800034765683 2.108396035193 9.8678181749177 37.010497220662
134	398264 1733 2397 7977 81 143 63 0.973 7.9985913624082 156.1111315119 560.60130351022
135	399997 1774 2399 7977 82 143 62 2297.0936434198 2450.1729110724 149305.67753509 359659307.53156
136	401771 1776 2399 7977 82 143 62 1578.4479903299 2120.9215816753 114834.6425197 214899639.40705
137	403547 1747 2525 7977 83 143 61 3.8169569386458 13.998507969014 784.70501586761 10385.723795283
138	405294 1834 2527 7977 84 143 60 -2.3598040740222 2.1917019801144 10.101966952788 43.132334741809
139	407128 1648 2527 7977 84 143 60 0.973 7.7541670228011 156.58722067354 576.69231786568
140	408776 1692 2657 7977 85 143 59 2329.0771055978 2450.3908839365 142307.85335802 343328604.67284
141	410468 1688 2657 7977 85 143 59 1578.4518036256 2120.6139469184 108644.77207187 202072624.81216
142	412156 1666 2659 7977 86 143 58 4.0343364698305 13.999620908881 753.22447292942 10061.080242794
143	413822 1756 2788 7977 87 143 57 -3.6888268362507 2.0824805266107 9.8958476329055 49.184937236692
144	415578 1605 2788 7977 87 143 57 0.973 8.0447510818254 151.53715357266 566.56590286528
145	417183 1600 2790 7977 88 143 56 2334.5638607559 2450.5693259261 135269.90115069 326816430.23904
146	418783 1609 2790 7977 88 143 56 1578.4481442608 2120.7721794043 102356.00849592 188866724.0774
147	420392 1575 2924 7977 89 143 55 4.0013211675714 13.999199340187 714.70859864548 9565.8417277741
148	421967 1659 2926 7977 90 143 54 -4.4090028646632 2.1844902744796 9.9865414794251 52.936597206416
149	423626 1521 2926 7977 90 143 54 0.973 8.6397759745869 145.82328248751 573.17338248165
150	425147 1524 3063 7977 91 143 53 2334.3695889099 2450.5909072174 128125.01814489 309799734.19929
151	426671 1522 3063 7977 91 143 53 1578.4565926548 2120.8488398083 96016.345199979 175455352.75548
152	428193 1495 3065 7977 92 143 52 4.0929231651139 13.99601826282 672.15090189686 8958.3680884401
153	429688 1574 3205 7977 93 143 51 -4.4791784844679 2.1234678969695 9.8531765554019 54.315703533246
154	431262 1431 3205 7977 93 143 51 0.973 9.1179268217973 140.18574025338 566.85469123694
155	432693 1438 3207 7977 94 143 50 2334.3552150509 2450.6484816062 120859.82182894 292205112.1059
156	434131 1437 3207 7977 94 143 50 1578.4661713783 2095.3243749309 89704.221127853 162161016.28477
157	435568 1407 3353 7977 95 143 49 4.2052558286512 13.998518423606 631.2501953815 8397.5304954545
158	436975 1482 3355 7977 96 143 48 -4.4488477394171 2.1511947196047 9.7576977645326 54.090605186754
159	438457 1347 3355 7977 96 143 48 0.973 8.7639896884138 134.24801375601 552.3047799006
160	439804 1355 3506 7977 97 143 47 2334.6953258149 2450.3917266983 113356.32905268 273464340.49638
161	441159 1353 3506 7977 97 143 47 1578.4490826223 2021.9693115409 82576.941051296 145897371.0676
162	442512 1325 3508 7977 98 143 46 3.9195603011693 13.983073143384 558.15317701334 7014.7773267899
163	443837 1393 3660 7977 99 143 45 -2.8955604249949 2.1175358718634 9.9973602068256 36.565038701999
164	445230 1279 3660 7977 99 143 45 0.973 8.4839578196736 117.58536859087 449.35688995696
165	446509 1273 3662 7977 100 143 44 2334.7776501694 2450.2676099896 106135.34213269 256076533.77561
166	447782 1274 3662 7977 100 143 44 1578.4549668636 1992.4946469311 76887.207593353 135007416.4672
167	449056 1242 3820 7977 101 143 43 3.9747482432421 13.991149456091 528.68417086794 6766.05670602
168	450298 1295 3822 7977 102 143 42 -1.8599681704293 2.0400745077524 9.9029514496359 36.994171017049
169	451593 1147 3822 7977 102 143 42 0.973 8.7362375013429 113.59187253032 479.92755311766
170	452740 1183 3980 7977 103 143 41 2334.0319650015 2450.2577806491 98856.370675449 238411510.317
171	453923 1180 3980 7977 103 143 41 1578.4700050903 1961.2769416757 71187.631960975 124114102.22563
172	455103 1158 3982 7977 104 143 40 4.2292426157767 13.998561192479 497.63365297374 6451.5090740156
173	456261 1202 4142 7977 105 143 39 -2.3199954668997 2.2262654979038 9.7401214966573 44.855931410731
174	457463 1077 4142 7977 105 143 39 0.973 7.6878605237884 113.70761211356 499.44954607063
175	458540 1100 4144 7977 106 143 38 2334.7695703001 2450.2801452257 91521.653497739 220478188.53472
176	459640 1095 4144 7977 106 143 38 1578.454787395 1923.2162477979 65368.205781383 112831920.93629
177	460735 1070 4306 7977 107 143 37 3.828069966125 13.995784487957 458.7768281464 5949.6907320182
178	461805 1108 4308 7977 108 143 36 -3.3327581210373 2.0073283973546 10.063742437443 45.24616427577
179	462913 1000 4308 7977 108 143 36 0.973 7.917155437987 108.12494787273 466.37082278988
180	463913 1011 4470 7977 109 143 35 2334.6344563016 2447.544346492 84182.334075397 202522659.91983
181	464924 1013 4470 7977 109 143 35 1578.4516972676 1885.5936203394 59701.828643636 102114191.4485
182	465937 980 4472 7977 110 143 34 3.9549282409494 13.999050881448 421.56894203552 5468.8161746709
183	466917 1012 4641 7977 111 143 33 -4.4691865845785 2.1450316884601 9.9507404628665 52.349179475166
184	467929 933 4641 7977 111 143 33 0.973 8.977512736819 103.02185005159 472.44379013245
185	468862 926 4643 7977 112 143 32 2333.9493048734 2442.9216032333 76711.058135292 183934351.4426
186	469788 926 4643 7977 112 143 32 1578.451437911 1822.0217846921 53819.772641961 90667695.82656
187	470714 897 4817 7977 113 143 31 4.0468560271259 13.997230974345 357.02945481777 4294.3368620094
188	471611 908 4819 7977 114 143 30 -3.08 2.0959686288238 9.9236157742547 45.102337269143
189	472519 850 4819 7977 114 143 30 0.973 8.1136061922364 91.764369607561 411.86188258119
190	473369 839 4997 7977 115 143 29 2334.9436089419 2440.6137850165 69449.174577296 166351477.71887
191	474208 839 4997 7977 115 143 29 1578.4623623062 1790.2847332992 48503.09128123 81228509.267459
192	475047 810 4999 7977 116 143 28 4.2921992871535 13.996927824356 325.21996249197 3963.9101599286
193	475857 823 5187 7977 117 143 27 -3.4962148275985 2.0968393029622 9.5913327833012 49.775644997651
194	476680 761 5187 7977 117 143 27 0.973 8.1912732447517 88.657797941326 415.74857288955
195	477441 753 5189 7977 118 143 26 2334.6668089847 2434.6296534654 62015.853821161 147947840.76341
196	478194 751 5189 7977 118 143 26 1578.463362135 1730.2881433554 43034.681238307 71290977.633329
197	478945 721 5383 7977 119 143 25 4.099163855175 13.783054530363 265.27366678015 2928.2720849024
198	479666 724 5385 7977 120 143 24 -2.9252093394197 2.0846138097718 9.6838906751875 35.754056235547
199	480390 673 5385 7977 120 143 24 0.973 8.4212677898141 74.238908113836 355.70846892477
200	481063 663 5578 7977 121 143 23 2333.9824690933 2430.3004373846 54768.526490051 130436558.99686
201	481726 663 5578 7977 121 143 23 1578.45727483 1703.0598380724 37910.766224498 62536674.522156
202	482389 635 5580 7977 122 143 22 3.9084870939956 12.337866502417 235.40987466885 2650.8198726209
203	483024 640 5777 7977 123 143 21 -3.759724677813 2.3720240620477 5.1240001577424 38.075224513256
204	483664 579 5777 7977 123 143 21 0.973 7.4633298515258 58.800732162754 241.86004999867
205	484243 580 5779 7977 124 143 20 2334.5169715756 2414.8906237447 47573.392560059 113175555.59395
206	484823 579 5779 7977 124 143 20 1578.4581599468 1700.1835774975 32866.26788768 54051453.452716
207	485402 550 5978 7977 125 143 19 4.076561782019 13.976141884367 219.16701060252 2696.0207586273
208	485952 547 5980 7977 126 143 18 -3.1049815161731 1.9700334373023 5.4041262578603 30.579595048299
209	486499 500 5980 7977 126 143 18 0.973 8.2851992498627 55.300197341582 252.61898526777
210	486999 492 6178 7977 127 143 17 2333.9088620376 2414.8836791968 40324.155012222 95661233.397244
211	487491 492 6178 7977 127 143 17 1578.4481271179 1695.7237083642 27732.535871006 45268875.379721
212	487983 463 6180 7977 128 143 16 3.9824005470828 12.612673348718 178.15513082622 2094.3265673083
213	488446 462 6386 7977 129 143 15 -0.071056252236014 2.145434306066 8.5819895857319 16.443706727824
214	488908 435 6386 7977 129 143 15 1.6824736096304 7.2562844975478 46.475247535183 197.2798968442
215	489343 401 6388 7977 130 143 14 2333.8669623059 2414.8720430041 33251.390863573 78986665.65264
216	489744 406 6388 7977 130 143 14 1578.4523998667 1676.1868527317 22643.65760167 36638605.281398
217	490150 374 6605 7977 131 143 13 3.8414571175372 12.846164658443 139.68864165488 1622.3792357533
218	490524 363 6607 7977 132 143 12 -0.049538951006252 1.9174910463369 8.981473303436 16.30218399588
219	490887 346 6607 7977 132 143 12 1.7656630139957 6.9764723776048 41.678542461432 193.8876866185
220	491233 319 6822 7977 133 143 11 2345.5368911185 2414.8835599658 26233.588605505 62569532.08452
221	491552 318 6822 7977 133 143 11 1578.4481708985 1643.9711219044 17653.013811729 28335419.883917
222	491870 290 6824 7977 134 143 10 4.0076643208797 12.188331644776 100.57674395814 1094.0099870538
223	492160 272 7043 7977 135 143 9 -0.055130667027552 2.1373789616558 8.1255366568687 15.879781339871
224	492432 260 7043 7977 135 143 9 1.6991036221722 7.7535917575433 33.506911794092 166.06889942788
225	492692 232 7045 7977 136 143 8 2368.0261674369 2414.8606275192 19163.281132335 45905865.44574
226	492924 232 7045 7977 136 143 8 1578.4565915735 1621.1925832378 12755.055740555 20338176.508263
227	493156 203 7270 7977 137 143 7 4.2020141742253 13.885680944896 69.096513774421 766.87629257527
228	493359 176 7272 7977 138 143 6 0.011605246057734 2.1547421413963 9.683666770671 18.829084949838
229	493535 173 7272 7977 138 143 6 2.0660101570186 7.8458806320652 34.004255489614 214.60634755023
230	493708 145 7504 7977 139 143 5 2396.1245509364 2414.8833766948 12032.668306029 28957247.071936
231	493853 144 7504 7977 139 143 5 1578.4482381949 1592.7327917377 7918.5014068577 12540672.364512
232	493997 116 7506 7977 140 143 4 3.9728593152307 9.7398787253757 27.522542832831 207.78507929965
233	494113 86 7736 7977 141 143 3 1.8872606477793 1.988412756992 5.767019410145 11.092727756868
234	494199 87 7736 7977 141 143 3 4.2738278402126 6.1047844628984 15.481634209658 81.57483032492
235	494286 58 7738 7977 142 143 2 2411.9458734991 2414.8344336114 4826.7803071105 11648908.238445
236	494344 58 7738 7977 142 143 2 1578.4662098391 1579.5268740375 3157.9930838766 4986460.7214104
237	494402 29 7977 7977 143 143 1 3.8298766437329 3.8298766437329 3.8298766437329 14.667955106211

