version 2
run Default-0-20250401-10:43:05-5808
attr configname Default
attr datetime 20250401-10:43:05
attr experiment Default
attr inifile omnetpp.ini
attr iterationvars ""
attr iterationvarsf ""
attr measurement ""
attr network RSUExampleScenario
attr processid 5808
attr repetition 0
attr replication #0
attr resultdir results
attr runnumber 0
attr seedset 0
param *.playgroundSizeX 2500m
param *.playgroundSizeY 2500m
param *.playgroundSizeZ 50m
param *.annotations.draw true
param *.obstacles.obstacles "xmldoc(\"config.xml\", \"//AnalogueModel[@type='SimpleObstacleShadowing']/obstacles\")"
param *.manager.updateInterval 1s
param *.manager.host "\"localhost\""
param *.manager.port 9999
param *.manager.autoShutdown true
param *.manager.launchConfig "xmldoc(\"erlangen.launchd.xml\")"
param *.rsu[0].mobility.x 2000
param *.rsu[0].mobility.y 2000
param *.rsu[0].mobility.z 3
param *.rsu[*].applType "\"TraCIDemoRSU11p\""
param *.rsu[*].appl.headerLength "80 bit"
param *.rsu[*].appl.sendBeacons false
param *.rsu[*].appl.dataOnSch false
param *.rsu[*].appl.beaconInterval 1s
param *.rsu[*].appl.beaconUserPriority 7
param *.rsu[*].appl.dataUserPriority 5
param *.rsu[*].nic.phy80211p.antennaOffsetZ "0 m"
param *.connectionManager.sendDirect true
param *.connectionManager.maxInterfDist 2600m
param *.connectionManager.drawMaxIntfDist false
param *.**.nic.mac1609_4.useServiceChannel false
param *.**.nic.mac1609_4.txPower 20mW
param *.**.nic.mac1609_4.bitrate 6Mbps
param *.**.nic.phy80211p.minPowerLevel -110dBm
param *.**.nic.phy80211p.useNoiseFloor true
param *.**.nic.phy80211p.noiseFloor -98dBm
param *.**.nic.phy80211p.decider "xmldoc(\"config.xml\")"
param *.**.nic.phy80211p.analogueModels "xmldoc(\"config.xml\")"
param *.**.nic.phy80211p.usePropagationDelay true
param *.**.nic.phy80211p.antenna "xmldoc(\"antenna.xml\", \"/root/Antenna[@id='monopole']\")"
param *.node[*].nic.phy80211p.antennaOffsetY "0 m"
param *.node[*].nic.phy80211p.antennaOffsetZ "1.895 m"
param *.node[*].applType "\"TraCIDemo11p\""
param *.node[*].appl.headerLength "80 bit"
param *.node[*].appl.sendBeacons false
param *.node[*].appl.dataOnSch false
param *.node[*].appl.beaconInterval 1s
param *.node[*].veinsmobility.x 0
param *.node[*].veinsmobility.y 0
param *.node[*].veinsmobility.z 0
param *.node[*].veinsmobility.setHostSpeed false

vector 0 RSUExampleScenario.node[0].veinsmobility posx ETV
vector 1 RSUExampleScenario.node[0].veinsmobility posy ETV
vector 2 RSUExampleScenario.node[0].veinsmobility speed ETV
vector 3 RSUExampleScenario.node[0].veinsmobility acceleration ETV
vector 4 RSUExampleScenario.node[0].veinsmobility co2emission ETV
vector 5 RSUExampleScenario.node[1].veinsmobility posx ETV
vector 6 RSUExampleScenario.node[1].veinsmobility posy ETV
vector 7 RSUExampleScenario.node[1].veinsmobility speed ETV
vector 8 RSUExampleScenario.node[1].veinsmobility acceleration ETV
vector 9 RSUExampleScenario.node[1].veinsmobility co2emission ETV
vector 10 RSUExampleScenario.node[2].veinsmobility posx ETV
vector 11 RSUExampleScenario.node[2].veinsmobility posy ETV
vector 12 RSUExampleScenario.node[2].veinsmobility speed ETV
vector 13 RSUExampleScenario.node[2].veinsmobility acceleration ETV
vector 14 RSUExampleScenario.node[2].veinsmobility co2emission ETV
vector 15 RSUExampleScenario.node[3].veinsmobility posx ETV
vector 16 RSUExampleScenario.node[3].veinsmobility posy ETV
vector 17 RSUExampleScenario.node[3].veinsmobility speed ETV
vector 18 RSUExampleScenario.node[3].veinsmobility acceleration ETV
vector 19 RSUExampleScenario.node[3].veinsmobility co2emission ETV
vector 20 RSUExampleScenario.node[4].veinsmobility posx ETV
vector 21 RSUExampleScenario.node[4].veinsmobility posy ETV
vector 22 RSUExampleScenario.node[4].veinsmobility speed ETV
vector 23 RSUExampleScenario.node[4].veinsmobility acceleration ETV
vector 24 RSUExampleScenario.node[4].veinsmobility co2emission ETV
vector 25 RSUExampleScenario.node[5].veinsmobility posx ETV
vector 26 RSUExampleScenario.node[5].veinsmobility posy ETV
vector 27 RSUExampleScenario.node[5].veinsmobility speed ETV
vector 28 RSUExampleScenario.node[5].veinsmobility acceleration ETV
vector 29 RSUExampleScenario.node[5].veinsmobility co2emission ETV
vector 30 RSUExampleScenario.node[6].veinsmobility posx ETV
vector 31 RSUExampleScenario.node[6].veinsmobility posy ETV
vector 32 RSUExampleScenario.node[6].veinsmobility speed ETV
vector 33 RSUExampleScenario.node[6].veinsmobility acceleration ETV
vector 34 RSUExampleScenario.node[6].veinsmobility co2emission ETV
vector 35 RSUExampleScenario.node[7].veinsmobility posx ETV
vector 36 RSUExampleScenario.node[7].veinsmobility posy ETV
vector 37 RSUExampleScenario.node[7].veinsmobility speed ETV
vector 38 RSUExampleScenario.node[7].veinsmobility acceleration ETV
vector 39 RSUExampleScenario.node[7].veinsmobility co2emission ETV
vector 40 RSUExampleScenario.node[8].veinsmobility posx ETV
vector 41 RSUExampleScenario.node[8].veinsmobility posy ETV
vector 42 RSUExampleScenario.node[8].veinsmobility speed ETV
vector 43 RSUExampleScenario.node[8].veinsmobility acceleration ETV
vector 44 RSUExampleScenario.node[8].veinsmobility co2emission ETV
vector 45 RSUExampleScenario.node[9].veinsmobility posx ETV
vector 46 RSUExampleScenario.node[9].veinsmobility posy ETV
vector 47 RSUExampleScenario.node[9].veinsmobility speed ETV
vector 48 RSUExampleScenario.node[9].veinsmobility acceleration ETV
vector 49 RSUExampleScenario.node[9].veinsmobility co2emission ETV
vector 50 RSUExampleScenario.node[10].veinsmobility posx ETV
vector 51 RSUExampleScenario.node[10].veinsmobility posy ETV
vector 52 RSUExampleScenario.node[10].veinsmobility speed ETV
vector 53 RSUExampleScenario.node[10].veinsmobility acceleration ETV
vector 54 RSUExampleScenario.node[10].veinsmobility co2emission ETV
vector 55 RSUExampleScenario.node[11].veinsmobility posx ETV
vector 56 RSUExampleScenario.node[11].veinsmobility posy ETV
vector 57 RSUExampleScenario.node[11].veinsmobility speed ETV
vector 58 RSUExampleScenario.node[11].veinsmobility acceleration ETV
vector 59 RSUExampleScenario.node[11].veinsmobility co2emission ETV
vector 60 RSUExampleScenario.node[12].veinsmobility posx ETV
vector 61 RSUExampleScenario.node[12].veinsmobility posy ETV
vector 62 RSUExampleScenario.node[12].veinsmobility speed ETV
vector 63 RSUExampleScenario.node[12].veinsmobility acceleration ETV
vector 64 RSUExampleScenario.node[12].veinsmobility co2emission ETV
vector 65 RSUExampleScenario.node[13].veinsmobility posx ETV
vector 66 RSUExampleScenario.node[13].veinsmobility posy ETV
vector 67 RSUExampleScenario.node[13].veinsmobility speed ETV
vector 68 RSUExampleScenario.node[13].veinsmobility acceleration ETV
vector 69 RSUExampleScenario.node[13].veinsmobility co2emission ETV
vector 70 RSUExampleScenario.node[14].veinsmobility posx ETV
vector 71 RSUExampleScenario.node[14].veinsmobility posy ETV
vector 72 RSUExampleScenario.node[14].veinsmobility speed ETV
vector 73 RSUExampleScenario.node[14].veinsmobility acceleration ETV
vector 74 RSUExampleScenario.node[14].veinsmobility co2emission ETV
vector 75 RSUExampleScenario.node[15].veinsmobility posx ETV
vector 76 RSUExampleScenario.node[15].veinsmobility posy ETV
vector 77 RSUExampleScenario.node[15].veinsmobility speed ETV
vector 78 RSUExampleScenario.node[15].veinsmobility acceleration ETV
vector 79 RSUExampleScenario.node[15].veinsmobility co2emission ETV
vector 80 RSUExampleScenario.node[16].veinsmobility posx ETV
vector 81 RSUExampleScenario.node[16].veinsmobility posy ETV
vector 82 RSUExampleScenario.node[16].veinsmobility speed ETV
vector 83 RSUExampleScenario.node[16].veinsmobility acceleration ETV
vector 84 RSUExampleScenario.node[16].veinsmobility co2emission ETV
vector 85 RSUExampleScenario.node[17].veinsmobility posx ETV
vector 86 RSUExampleScenario.node[17].veinsmobility posy ETV
vector 87 RSUExampleScenario.node[17].veinsmobility speed ETV
vector 88 RSUExampleScenario.node[17].veinsmobility acceleration ETV
vector 89 RSUExampleScenario.node[17].veinsmobility co2emission ETV
vector 90 RSUExampleScenario.node[18].veinsmobility posx ETV
vector 91 RSUExampleScenario.node[18].veinsmobility posy ETV
vector 92 RSUExampleScenario.node[18].veinsmobility speed ETV
vector 93 RSUExampleScenario.node[18].veinsmobility acceleration ETV
vector 94 RSUExampleScenario.node[18].veinsmobility co2emission ETV
vector 95 RSUExampleScenario.node[19].veinsmobility posx ETV
vector 96 RSUExampleScenario.node[19].veinsmobility posy ETV
vector 97 RSUExampleScenario.node[19].veinsmobility speed ETV
vector 98 RSUExampleScenario.node[19].veinsmobility acceleration ETV
vector 99 RSUExampleScenario.node[19].veinsmobility co2emission ETV
vector 100 RSUExampleScenario.node[20].veinsmobility posx ETV
vector 101 RSUExampleScenario.node[20].veinsmobility posy ETV
vector 102 RSUExampleScenario.node[20].veinsmobility speed ETV
vector 103 RSUExampleScenario.node[20].veinsmobility acceleration ETV
vector 104 RSUExampleScenario.node[20].veinsmobility co2emission ETV
vector 105 RSUExampleScenario.node[21].veinsmobility posx ETV
vector 106 RSUExampleScenario.node[21].veinsmobility posy ETV
vector 107 RSUExampleScenario.node[21].veinsmobility speed ETV
vector 108 RSUExampleScenario.node[21].veinsmobility acceleration ETV
vector 109 RSUExampleScenario.node[21].veinsmobility co2emission ETV
vector 110 RSUExampleScenario.node[22].veinsmobility posx ETV
vector 111 RSUExampleScenario.node[22].veinsmobility posy ETV
vector 112 RSUExampleScenario.node[22].veinsmobility speed ETV
vector 113 RSUExampleScenario.node[22].veinsmobility acceleration ETV
vector 114 RSUExampleScenario.node[22].veinsmobility co2emission ETV
vector 115 RSUExampleScenario.node[23].veinsmobility posx ETV
vector 116 RSUExampleScenario.node[23].veinsmobility posy ETV
vector 117 RSUExampleScenario.node[23].veinsmobility speed ETV
vector 118 RSUExampleScenario.node[23].veinsmobility acceleration ETV
vector 119 RSUExampleScenario.node[23].veinsmobility co2emission ETV
vector 120 RSUExampleScenario.node[24].veinsmobility posx ETV
vector 121 RSUExampleScenario.node[24].veinsmobility posy ETV
vector 122 RSUExampleScenario.node[24].veinsmobility speed ETV
vector 123 RSUExampleScenario.node[24].veinsmobility acceleration ETV
vector 124 RSUExampleScenario.node[24].veinsmobility co2emission ETV
vector 125 RSUExampleScenario.node[25].veinsmobility posx ETV
vector 126 RSUExampleScenario.node[25].veinsmobility posy ETV
vector 127 RSUExampleScenario.node[25].veinsmobility speed ETV
vector 128 RSUExampleScenario.node[25].veinsmobility acceleration ETV
vector 129 RSUExampleScenario.node[25].veinsmobility co2emission ETV
vector 130 RSUExampleScenario.node[26].veinsmobility posx ETV
vector 131 RSUExampleScenario.node[26].veinsmobility posy ETV
vector 132 RSUExampleScenario.node[26].veinsmobility speed ETV
0	2	1	2414.8476884116
0	4	2	2411.8243290941
0	18	3	2407.1592244543
0	20	4	2402.288200066
0	39	5	2396.1394374635
0	41	6	2388.6993875942
0	60	7	2379.889221533
0	62	8	2370.1207192459
0	86	9	2360.3141803208
0	88	10	2350.5099475634
0	118	11	2341.0010868867
0	120	12	2334.5620136983
0	150	13	2337.6803779466
0	152	14	2348.3497968862
0	184	15	2358.6961674725
0	186	16	2371.6616533546
0	220	17	2385.4706804305
0	222	18	2399.3588350668
0	257	19	2412.4541998667
0	259	20	2421.4418196582
0	296	21	2428.417609864
0	298	22	2431.468930052
0	336	23	2433.1513403206
0	338	24	2435.1237040944
0	376	25	2437.2173147583
0	378	26	2438.6437980286
0	418	27	2439.5074353185
0	420	28	2440.517813261
0	462	29	2441.5286354903
0	464	30	2442.5392864447
0	507	31	2443.5505626462
0	509	32	2444.5611125134
0	554	33	2445.5724211388
0	556	34	2446.5834693939
0	605	35	2447.5934051003
0	607	36	2448.6036931522
0	654	37	2449.6148620235
0	656	38	2450.6248001783
0	704	39	2449.5880553933
0	706	40	2448.4757357414
0	756	41	2447.3635385588
0	758	42	2446.250303259
0	808	43	2445.1365203297
0	810	44	2444.0235521834
0	863	45	2442.9111769209
0	865	46	2441.7982721732
0	922	47	2440.6856421625
0	924	48	2439.7151308154
0	978	49	2438.7725309408
0	980	50	2437.9056889905
0	1036	51	2432.8785054281
0	1038	52	2422.5273191113
0	1101	53	2409.439604845
0	1103	54	2395.517893619
0	1169	55	2381.592286239
0	1171	56	2367.6659531716
0	1238	57	2353.7601239877
0	1240	58	2339.8337569573
0	1314	59	2325.9069679289
0	1316	60	2311.9542202253
0	1394	61	2298.0325140053
0	1396	62	2284.0857072632
0	1476	63	2270.1754193477
0	1478	64	2256.2378749268
0	1568	65	2242.3725172955
0	1570	66	2228.5568932705
0	1664	67	2214.8035730832
0	1666	68	2201.6130456962
0	1762	69	2188.4247624045
0	1764	70	2175.5107078577
0	1866	71	2163.5018647154
0	1868	72	2152.2359160049
0	1967	73	2144.5614629743
0	1969	74	2138.2558950796
0	2069	75	2131.5955681979
0	2071	76	2123.7056670481
0	2176	77	2114.4870687368
0	2178	78	2104.967243704
0	2284	79	2095.4384303803
0	2286	80	2085.9056783495
1	2	1	1578.4613427464
1	4	2	1579.5715045081
1	18	3	1581.5561876604
1	20	4	1586.4898643075
1	39	5	1592.7177137369
1	41	6	1600.2534592729
1	60	7	1609.1769437566
1	62	8	1619.0710908128
1	86	9	1629.0037637418
1	88	10	1638.9341008412
1	118	11	1649.1129276818
1	120	12	1661.0453354148
1	150	13	1673.5713017788
1	152	14	1682.4825292248
1	184	15	1691.8131453674
1	186	16	1695.5671389326
1	220	17	1697.3762977775
1	222	18	1698.7149431584
1	257	19	1699.9531973498
1	259	20	1700.8030368192
1	296	21	1701.4822415169
1	298	22	1709.488976148
1	336	23	1720.5600911779
1	338	24	1733.5392477075
1	376	25	1747.3162704222
1	378	26	1761.1584832035
1	418	27	1775.0702432813
1	420	28	1788.9649324082
1	462	29	1802.8657313576
1	464	30	1816.7641749373
1	507	31	1830.6712168986
1	509	32	1844.5682703312
1	554	33	1858.4757581847
1	556	34	1872.3796654344
1	605	35	1886.2682729438
1	607	36	1900.1617258992
1	654	37	1914.0672918586
1	656	38	1927.95593304
1	704	39	1941.8192613758
1	706	40	1955.7024557721
1	756	41	1969.5841215905
1	758	42	1983.4787444612
1	808	43	1997.3802024601
1	810	44	2011.2714909082
1	863	45	2025.1553793969
1	865	46	2039.0458765477
1	922	47	2052.9329446238
1	924	48	2066.8462265795
1	978	49	2080.7728807703
1	980	50	2094.6498483503
1	1036	51	2107.3969092406
1	1038	52	2116.410831539
1	1101	53	2120.9360540062
1	1103	54	2120.5048353085
1	1169	55	2120.0344859883
1	1171	56	2119.5641121576
1	1238	57	2119.0944308629
1	1240	58	2118.6240558857
1	1314	59	2118.1536666537
1	1316	60	2117.6824006466
1	1394	61	2117.2121830918
1	1396	62	2116.7411177447
1	1476	63	2116.2712858524
1	1478	64	2115.8005333487
1	1568	65	2114.7955725584
1	1570	66	2112.8364102887
1	1664	67	2110.6440530941
1	1666	68	2106.1704403665
1	1762	69	2101.6975887315
1	1764	70	2096.6391956527
1	1866	71	2089.5697793076
1	1868	72	2082.9376931852
1	1967	73	2078.419863862
1	1969	74	2074.2936624894
1	2069	75	2067.3736373968
1	2071	76	2058.9511591028
1	2176	77	2049.1102951029
1	2178	78	2038.9478712408
1	2284	79	2028.7758523691
1	2286	80	2018.5996289225
2	4	2	4.1061966058897
2	18	3	6.0195495591482
2	20	4	7.7148368984793
2	39	5	9.5879868385225
2	41	6	11.391389363371
2	60	7	13.513839789145
2	62	8	13.99235115225
2	86	9	13.890224446259
2	88	10	13.976677174468
2	118	11	13.994826577434
2	120	12	13.923680325528
2	150	13	13.923542996629
2	152	14	13.91007151508
2	184	15	13.964598868005
2	186	16	13.995233640105
2	220	17	13.952304350403
2	222	18	13.956911946491
2	257	19	11.503494614513
2	259	20	7.0034946145128
2	296	21	7.8970062485022
2	298	22	10.10483181514
2	336	23	11.990706169653
2	338	24	13.981089308816
2	376	25	13.965594365916
2	378	26	13.989059597438
2	418	27	13.956378436291
2	420	28	13.910982951869
2	462	29	13.88918493646
2	464	30	13.908189346099
2	507	31	13.983992603337
2	509	32	13.971500478752
2	554	33	13.873081948087
2	556	34	13.985133641064
2	605	35	13.886848415199
2	607	36	13.876205747321
2	654	37	13.967912819823
2	656	38	13.871047234884
2	704	39	13.89239756926
2	706	40	13.872267716837
2	756	41	13.999815066161
2	758	42	13.964707984752
2	808	43	13.906584702837
2	810	44	13.922364303169
2	863	45	13.929034490574
2	865	46	13.93922677479
2	922	47	13.924399639922
2	924	48	13.96850544848
2	978	49	13.986686690277
2	980	50	13.935194088209
2	1036	51	13.930097484484
2	1038	52	13.948393711536
2	1101	53	13.882971800906
2	1103	54	13.87138918183
2	1169	55	13.933780807857
2	1171	56	13.942265776542
2	1238	57	13.95140511482
2	1240	58	13.886548467774
2	1314	59	13.920721456567
2	1316	60	13.906796863726
2	1394	61	13.917803910668
2	1396	62	13.924582225601
2	1476	63	13.959688465288
2	1478	64	13.957318032989
2	1568	65	13.940553226951
2	1570	66	13.998651232829
2	1664	67	13.999179182528
2	1666	68	13.886099785112
2	1762	69	13.881868150404
2	1764	70	13.887636745651
2	1866	71	13.978686858166
2	1868	72	11.380505228889
2	1967	73	6.8805052288885
2	1969	74	8.4946715655791
2	2069	75	10.462119500426
2	2071	76	12.535577293956
2	2176	77	13.991704303646
2	2178	78	13.884412832095
2	2284	79	13.939308186586
2	2286	80	13.975432322551
3	18	3	1.9133529532584
3	20	4	1.6952873393311
3	39	5	1.8731499400432
3	41	6	1.8034025248489
3	60	7	2.1224504257739
3	62	8	0.47851136310433
3	86	9	-0.1021267059911
3	88	10	0.086452728209551
3	118	11	0.018149402965792
3	120	12	-0.071146251906175
3	150	13	-0.0001373288989992
3	152	14	-0.013471481548622
3	184	15	0.054527352924923
3	186	16	0.03063477210002
3	220	17	-0.04292928970186
3	222	18	0.0046075960877356
3	257	19	-2.4534173319781
3	259	20	-4.5
3	296	21	0.8935116339894
3	298	22	2.2078255666373
3	336	23	1.8858743545134
3	338	24	1.9903831391631
3	376	25	-0.01549494290026
3	378	26	0.023465231521987
3	418	27	-0.032681161146611
3	420	28	-0.045395484422334
3	462	29	-0.021798015409148
3	464	30	0.019004409639164
3	507	31	0.075803257238585
3	509	32	-0.012492124584968
3	554	33	-0.098418530665803
3	556	34	0.11205169297755
3	605	35	-0.098285225864965
3	607	36	-0.01064266787842
3	654	37	0.091707072502468
3	656	38	-0.096865584938786
3	704	39	0.021350334375166
3	706	40	-0.020129852422979
3	756	41	0.12754734932445
3	758	42	-0.035107081409079
3	808	43	-0.058123281914741
3	810	44	0.015779600332026
3	863	45	0.0066701874043797
3	865	46	0.010192284216172
3	922	47	-0.014827134867664
3	924	48	0.044105808557942
3	978	49	0.018181241797283
3	980	50	-0.051492602068466
3	1036	51	-0.0050966037251055
3	1038	52	0.018296227052343
3	1101	53	-0.065421910630539
3	1103	54	-0.011582619075197
3	1169	55	0.062391626026946
3	1171	56	0.0084849686850799
3	1238	57	0.0091393382777465
3	1240	58	-0.064856647045817
3	1314	59	0.034172988792415
3	1316	60	-0.013924592840485
3	1394	61	0.011007046941668
3	1396	62	0.0067783149331806
3	1476	63	0.035106239686721
3	1478	64	-0.0023704322986315
3	1568	65	-0.016764806038699
3	1570	66	0.058098005878273
3	1664	67	0.0005279496987356
3	1666	68	-0.11307939741528
3	1762	69	-0.0042316347081215
3	1764	70	0.0057685952470639
3	1866	71	0.091050112515221
3	1868	72	-2.598181629278
3	1967	73	-4.5
3	1969	74	1.6141663366905
3	2069	75	1.9674479348469
3	2071	76	2.0734577935305
3	2176	77	1.4561270096891
3	2178	78	-0.10729147155071
3	2284	79	0.054895354490727
3	2286	80	0.036124135965947
4	18	3	4.1962556146115
4	20	4	4.6765885426193
4	39	5	5.9822455727343
4	41	6	6.7469998477461
4	60	7	8.9023657158011
4	62	8	3.651678681686
4	86	9	1.6857621818206
4	88	10	2.3276633668785
4	118	11	2.0995306276608
4	120	12	1.7923040941768
4	150	13	2.0305681317735
4	152	14	1.9844951865828
4	184	15	2.2187318873595
4	186	16	2.1416854339172
4	220	17	1.8896148890835
4	222	18	2.0499339673421
4	257	19	0.973
4	259	20	0.973
4	296	21	3.236958348016
4	298	22	7.0694109561587
4	336	23	7.2974163894139
4	338	24	8.7433911631671
4	376	25	1.9831721788576
4	378	26	2.116835898497
4	418	27	1.9244585801898
4	420	28	1.8775583559564
4	462	29	1.9545657515643
4	464	30	2.0931646705581
4	507	31	2.2926746988581
4	509	32	1.993865292131
4	554	33	1.6968396252803
4	556	34	2.4149847823944
4	605	35	1.6983583398882
4	607	36	1.9906198998388
4	654	37	2.3442713071536
4	656	38	1.7018725964397
4	704	39	2.0993392475273
4	706	40	1.9585122345881
4	756	41	2.4691677522194
4	758	42	1.9170802753567
4	808	43	1.8345014514108
4	810	44	2.0838538984303
4	863	45	2.0539801513469
4	865	46	2.0668686152862
4	922	47	1.9813596940184
4	924	48	2.1840996762636
4	978	49	2.0987681125428
4	980	50	1.8592856847688
4	1036	51	2.0145873760113
4	1038	52	2.0950692067684
4	1101	53	1.8080099866508
4	1103	54	1.9870007069688
4	1169	55	2.2415869227426
4	1171	56	2.0614496349521
4	1238	57	2.0646020593826
4	1240	58	1.8102089718445
4	1314	59	2.1453880261281
4	1316	60	1.9826536733129
4	1394	61	2.0673636130683
4	1396	62	2.0538817544551
4	1476	63	2.1528270365066
4	1478	64	2.0265038417738
4	1568	65	1.9764402783138
4	1570	66	2.2347131127692
4	1664	67	2.0405446651404
4	1666	68	1.6487905152147
4	1762	69	2.0126291187762
4	1764	70	2.0466796925005
4	1866	71	2.3433989621326
4	1868	72	0.973
4	1967	73	0.973
4	1969	74	4.8809554156367
4	2069	75	6.6811452761601
4	2071	76	8.1607584221603
4	2176	77	6.9480584672652
4	2178	78	1.6680322027993
4	2284	79	2.2170514259717
4	2286	80	2.1579993066844
5	20	4	2414.8767583254
5	39	5	2411.8725636174
5	41	6	2407.2970525089
5	60	7	2402.4626210862
5	62	8	2396.3056860371
5	86	9	2388.8743536096
5	88	10	2380.097228827
5	118	11	2370.3507264333
5	120	12	2360.5878487076
5	150	13	2350.7849318213
5	152	14	2341.2418729237
5	184	15	2334.6305580324
5	186	16	2337.3467480277
5	220	17	2348.0519014368
5	222	18	2358.3998493504
5	257	19	2371.2788021446
5	259	20	2385.0887639745
5	296	21	2398.4985461925
5	298	22	2411.2485283293
5	336	23	2420.6905829484
5	338	24	2427.6440450998
5	376	25	2431.3031180431
5	378	26	2432.9057471878
5	418	27	2434.8184996871
5	420	28	2436.9106889558
5	462	29	2438.5031214217
5	464	30	2439.359314087
5	507	31	2440.3695716034
5	509	32	2441.3815056744
5	554	33	2442.392207776
5	556	34	2443.4019859718
5	605	35	2444.4122552489
5	607	36	2445.4251439738
5	654	37	2446.4367595227
5	656	38	2447.4467230743
5	704	39	2448.4574488286
5	706	40	2449.467800329
5	756	41	2450.4780716181
5	758	42	2449.7461704329
5	808	43	2448.6331060936
5	810	44	2447.5209445587
5	863	45	2446.407523851
5	865	46	2445.2946584851
5	922	47	2444.1824360332
5	924	48	2443.0706190476
5	978	49	2441.9568028547
5	980	50	2440.8451110823
5	1036	51	2439.8503503047
5	1038	52	2438.9091742415
5	1101	53	2438.2310626655
5	1103	54	2433.9050446447
5	1169	55	2424.21615465
5	1171	56	2411.3460908785
5	1238	57	2397.4706148925
5	1240	58	2383.5587488873
5	1314	59	2369.633660475
5	1316	60	2355.7048479554
5	1394	61	2341.7904321874
5	1396	62	2327.8638711022
5	1476	63	2313.9188814831
5	1478	64	2299.9979078089
5	1568	65	2286.0826278217
5	1570	66	2272.1551827891
5	1664	67	2258.2333055256
5	1666	68	2244.3319301521
5	1762	69	2230.5388995206
5	1764	70	2216.7493601282
5	1866	71	2203.5089906314
5	1868	72	2190.3028214657
5	1967	73	2177.2175397498
5	1969	74	2165.2424954871
5	2069	75	2153.7742474813
5	2071	76	2145.5067126864
5	2176	77	2139.5021617314
5	2178	78	2133.1382634535
5	2284	79	2125.5907683726
5	2286	80	2116.6856371113
6	20	4	1578.4506684253
6	39	5	1579.5537930429
6	41	6	1581.4165868293
6	60	7	1586.3131998433
6	62	8	1592.5493268352
6	86	9	1600.0762428036
6	88	10	1608.9662610246
6	118	11	1618.8381252186
6	120	12	1628.7265753681
6	150	13	1638.6555796713
6	152	14	1648.8046840783
6	184	15	1660.6325348346
6	186	16	1673.301875555
6	220	17	1682.2138796467
6	222	18	1691.5459182626
6	257	19	1695.5099147679
6	259	20	1697.3308411958
6	296	21	1698.6335971011
6	298	22	1699.8391930545
6	336	23	1700.7320023719
6	338	24	1701.2941834759
6	376	25	1708.3978488175
6	378	26	1718.9439634858
6	418	27	1731.5308475178
6	420	28	1745.2985167308
6	462	29	1759.1189484736
6	464	30	1773.033284259
6	507	31	1786.9263172904
6	509	32	1800.8424062571
6	554	33	1814.7415532097
6	556	34	1828.6279946407
6	605	35	1842.5211894047
6	607	36	1856.4504067414
6	654	37	1870.362115399
6	656	38	1884.2511058366
6	704	39	1898.150578063
6	706	40	1912.0449035605
6	756	41	1925.9381259941
6	758	42	1939.8457802581
6	808	43	1953.7382693188
6	810	44	1967.6194902081
6	863	45	1981.5164272105
6	865	46	1995.4064328251
6	922	47	2009.2884140396
6	924	48	2023.165334505
6	978	49	2037.0672076773
6	980	50	2050.942565321
6	1036	51	2064.8483957723
6	1038	52	2078.754013543
6	1101	53	2092.6537938379
6	1103	54	2105.6893007364
6	1169	55	2115.3934075218
6	1171	56	2120.5034639826
6	1238	57	2120.5707901428
6	1240	58	2120.100904949
6	1314	59	2119.6305731572
6	1316	60	2119.160115581
6	1394	61	2118.6901442679
6	1396	62	2118.2197627351
6	1476	63	2117.748758764
6	1478	64	2117.2785659507
6	1568	65	2116.8085654471
6	1570	66	2116.3381540589
6	1664	67	2115.8679307271
6	1666	68	2115.0734324455
6	1762	69	2113.117474094
6	1764	70	2111.1620108271
6	1866	71	2106.8134566117
6	1868	72	2102.3345389208
6	1967	73	2097.6439806372
6	1969	74	2090.5944611588
6	2069	75	2083.8432846358
6	2071	76	2078.976317442
6	2176	77	2075.2888157107
6	2178	78	2069.0204663062
6	2284	79	2060.9635068728
6	2286	80	2051.4572692998
7	39	5	4.0332649588119
7	41	6	5.8265110515686
7	60	7	7.7852127750962
7	62	8	9.5658873894228
7	86	9	11.450149483434
7	88	10	13.391487500134
7	118	11	13.949883621705
7	120	12	13.87602620427
7	150	13	13.885232782268
7	152	14	13.987373048679
7	184	15	13.890608048609
7	186	16	13.887004709987
7	220	17	13.926980708602
7	222	18	13.89086526999
7	257	19	13.965056618985
7	259	20	13.946692067499
7	296	21	13.097137451398
7	298	22	11.939132677032
7	336	23	7.4783001788439
7	338	24	7.8592269216425
7	376	25	9.5749213322898
7	378	26	11.610942506126
7	418	27	13.581243869506
7	420	28	13.973211987913
7	462	29	13.918392209036
7	464	30	13.928662607018
7	507	31	13.985277111761
7	509	32	13.95532245066
7	554	33	13.938708755139
7	556	34	13.908545650935
7	605	35	13.927478809105
7	607	36	13.897819017794
7	654	37	13.989504252097
7	656	38	13.94374062394
7	704	39	13.903882643976
7	706	40	13.969130632835
7	756	41	13.884234787642
7	758	42	13.881978327318
7	808	43	13.927070145076
7	810	44	13.922745489741
7	863	45	13.95273740395
7	865	46	13.968270483359
7	922	47	13.918685564972
7	924	48	13.921468284922
7	978	49	13.897015957548
7	980	50	13.964752228069
7	1036	51	13.91147568828
7	1038	52	13.974545761354
7	1101	53	13.965476403411
7	1103	54	13.989670229855
7	1169	55	13.951804798429
7	1171	56	13.892850009208
7	1238	57	13.958218119799
7	1240	58	13.933717581006
7	1314	59	13.982012811573
7	1316	60	13.954506225567
7	1394	61	13.954468280503
7	1396	62	13.914126337939
7	1476	63	13.998578815588
7	1478	64	13.932968401979
7	1568	65	13.954534002345
7	1570	66	13.957377178506
7	1664	67	13.932528918332
7	1666	68	13.977439161665
7	1762	69	13.873707558191
7	1764	70	13.945779315263
7	1866	71	13.942668949808
7	1868	72	13.91575948562
7	1967	73	13.907857767178
7	1969	74	13.74288410399
7	2069	75	12.057991498623
7	2071	76	7.5687227125094
7	2176	77	7.8527784139012
7	2178	78	9.8502493766883
7	2284	79	11.94908444162
7	2286	80	13.947927183691
8	41	6	1.7932460927567
8	60	7	1.9587017235276
8	62	8	1.7806746143266
8	86	9	1.8842620940111
8	88	10	1.9413380167005
8	118	11	0.5583961215709
8	120	12	-0.073857417434921
8	150	13	0.0092065779981212
8	152	14	0.10214026641101
8	184	15	-0.096765000070445
8	186	16	-0.0036033386224883
8	220	17	0.039975998615846
8	222	18	-0.036115438612178
8	257	19	0.074191348995083
8	259	20	-0.018364551486448
8	296	21	-0.84955461610103
8	298	22	-1.1580047743662
8	336	23	-4.4608324981877
8	338	24	0.38092674279862
8	376	25	1.7156944106473
8	378	26	2.0360211738362
8	418	27	1.9703013633797
8	420	28	0.39196811840698
8	462	29	-0.054819778876846
8	464	30	0.010270397982096
8	507	31	0.056614504742901
8	509	32	-0.029954661100637
8	554	33	-0.016613695521373
8	556	34	-0.030163104203529
8	605	35	0.018933158169965
8	607	36	-0.029659791311714
8	654	37	0.091685234303586
8	656	38	-0.045763628156855
8	704	39	-0.039857979963999
8	706	40	0.065247988859191
8	756	41	-0.08489584519295
8	758	42	-0.0022564603248618
8	808	43	0.045091817758511
8	810	44	-0.0043246553349299
8	863	45	0.029991914208512
8	865	46	0.015533079409506
8	922	47	-0.0495849183877
8	924	48	0.0027827199501917
8	978	49	-0.024452327373437
8	980	50	0.067736270520836
8	1036	51	-0.053276539789513
8	1038	52	0.063070073074195
8	1101	53	-0.0090693579427903
8	1103	54	0.024193826443517
8	1169	55	-0.037865431425162
8	1171	56	-0.058954789221753
8	1238	57	0.065368110591081
8	1240	58	-0.024500538792926
8	1314	59	0.048295230567454
8	1316	60	-0.027506586005911
8	1394	61	-3.7945064249811e-05
8	1396	62	-0.040341942564119
8	1476	63	0.08445247764932
8	1478	64	-0.065610413609539
8	1568	65	0.021565600365866
8	1570	66	0.0028431761614058
8	1664	67	-0.024848260174041
8	1666	68	0.044910243332852
8	1762	69	-0.10373160347343
8	1764	70	0.072071757072118
8	1866	71	-0.0031103654555054
8	1868	72	-0.02690946418792
8	1967	73	-0.0079017184418628
8	1969	74	-0.16497366318824
8	2069	75	-1.6848926053673
8	2071	76	-4.4892687861132
8	2176	77	0.28405570139177
8	2178	78	1.997470962787
8	2284	79	2.0988350649318
8	2286	80	1.9988427420706
9	41	6	3.9274001426868
9	60	7	5.2041356246368
9	62	8	5.7574507674447
9	86	9	7.0006276784153
9	88	10	8.2432295261252
9	118	11	3.9110016848773
9	120	12	1.7792042638201
9	150	13	2.0579365757541
9	152	14	2.3818636967155
9	184	15	1.7037407999188
9	186	16	2.0152488537881
9	220	17	2.1655550639215
9	222	18	1.906797412239
9	257	19	2.2849654495652
9	259	20	1.9716653983805
9	296	21	0.973
9	298	22	0.973
9	336	23	0.973
9	338	24	2.2554772362628
9	376	25	5.6120472675651
9	378	26	7.5119842129131
9	418	27	8.4455276517466
9	420	28	3.3560730035355
9	462	29	1.8466200733259
9	464	30	2.0660268329645
9	507	31	2.2281549844786
9	509	32	1.9335288120447
9	554	33	1.9767670407741
9	556	34	1.9283950769156
9	605	35	2.0949799016024
9	607	36	1.9290667558988
9	654	37	2.3468857079218
9	656	38	1.8793040227889
9	704	39	1.8954681876561
9	706	40	2.2553467174174
9	756	41	1.7429567241042
9	758	42	2.0192482635441
9	808	43	2.1827359052182
9	810	44	2.0164367628106
9	863	45	2.1348602115454
9	865	46	2.0878872407227
9	922	47	1.8642059318509
9	924	48	2.0401536442479
9	978	49	1.9464315106901
9	980	50	2.2632042711189
9	1036	51	1.851180617826
9	1038	52	2.2486511283506
9	1101	53	2.0047870143605
9	1103	54	2.1193583924862
9	1169	55	1.9065956504161
9	1171	56	1.8305118457369
9	1238	57	2.2544630998412
9	1240	58	1.9497933768092
9	1314	59	2.199742909699
9	1316	60	1.9416842431598
9	1394	61	2.0340583936544
9	1396	62	1.8947902862501
9	1476	63	2.3236156337703
9	1478	64	1.8116807487081
9	1568	65	2.1067187558746
9	1570	66	2.0440470145686
9	1664	67	1.9485115452067
9	1666	68	2.1878187851485
9	1762	69	1.6791237400594
9	1764	70	2.2755265645048
9	1866	71	2.0225291815531
9	1868	72	1.9399893034582
9	1967	73	2.0029455902709
9	1969	74	1.4663345211208
9	2069	75	0.973
9	2071	76	0.973
9	2176	77	2.0711335261948
9	2178	78	6.4152831024102
9	2284	79	7.8881081638602
9	2286	80	8.7525284671264
10	60	7	2414.8848622198
10	62	8	2412.0691307599
10	86	9	2407.3819784434
10	88	10	2402.4639103656
10	118	11	2396.2016479742
10	120	12	2388.5021761758
10	150	13	2379.5347220144
10	152	14	2369.7521497252
10	184	15	2359.9648396304
10	186	16	2350.1637192596
10	220	17	2340.717056727
10	222	18	2334.4889366638
10	257	19	2338.0188398167
10	259	20	2348.6970945761
10	296	21	2359.0578910074
10	298	22	2372.1753142256
10	336	23	2385.9847009928
10	338	24	2399.0560799135
10	376	25	2411.469456295
10	378	26	2420.8240344936
10	418	27	2428.2511095385
10	420	28	2431.5096723901
10	462	29	2433.2168502312
10	464	30	2435.2011956087
10	507	31	2437.29147981
10	509	32	2438.672857787
10	554	33	2439.5458305131
10	556	34	2440.5569901068
10	605	35	2441.5662171456
10	607	36	2442.5764760413
10	654	37	2443.5864360537
10	656	38	2444.5969193554
10	704	39	2445.6077267987
10	706	40	2446.6171177449
10	756	41	2447.6285385494
10	758	42	2448.6389437378
10	808	43	2449.6489775468
10	810	44	2450.659299592
10	863	45	2449.5461587089
10	865	46	2448.4337074455
10	922	47	2447.3207898499
10	924	48	2446.207873206
10	978	49	2445.0940501215
10	980	50	2443.9833638043
10	1036	51	2442.8694501355
10	1038	52	2441.7571938549
10	1101	53	2440.6460889142
10	1103	54	2439.6824932018
10	1169	55	2438.741084579
10	1171	56	2437.8178922307
10	1238	57	2432.628875918
10	1240	58	2422.099758557
10	1314	59	2408.9617932498
10	1316	60	2395.0275024913
10	1394	61	2381.1194986589
10	1396	62	2367.2108877165
10	1476	63	2353.2913366285
10	1478	64	2339.3363710896
10	1568	65	2325.3913249692
10	1570	66	2311.4476897647
10	1664	67	2297.4983647275
10	1666	68	2283.5801531249
10	1762	69	2269.6389171832
10	1764	70	2255.7127677456
10	1866	71	2241.8359768615
10	1868	72	2228.0496562888
10	1967	73	2214.3204117303
10	1969	74	2201.1356404887
10	2069	75	2187.9527212165
10	2071	76	2175.0638567568
10	2176	77	2163.8270147669
10	2178	78	2153.0802669595
10	2284	79	2145.0715277719
10	2286	80	2138.8791204049
11	60	7	1578.4476927174
11	62	8	1579.4816146148
11	86	9	1581.3305685576
11	88	10	1586.311893981
11	118	11	1592.6547030602
11	120	12	1600.4532072712
11	150	13	1609.5360029312
11	152	14	1619.4444009606
11	184	15	1629.3575977338
11	186	16	1639.2847824143
11	220	17	1649.4765304932
11	222	18	1661.4854336744
11	257	19	1673.8446300924
11	259	20	1682.7957309801
11	296	21	1692.1393567109
11	298	22	1695.6439150097
11	336	23	1697.4374776948
11	338	24	1698.6863156371
11	376	25	1699.860083269
11	378	26	1700.7446211064
11	418	27	1701.4003788568
11	420	28	1709.757081449
11	462	29	1720.9911797
11	464	30	1734.0491812732
11	507	31	1747.8043141738
11	509	32	1761.6824669717
11	554	33	1775.5982529195
11	556	34	1789.5036912933
11	605	35	1803.3825532272
11	607	36	1817.2756052278
11	654	37	1831.1645469936
11	656	38	1845.0606850199
11	704	39	1858.9612806309
11	706	40	1872.8423966132
11	756	41	1886.7514271513
11	758	42	1900.646490965
11	808	43	1914.536447579
11	810	44	1928.4487420022
11	863	45	1942.3421864314
11	865	46	1956.2270235084
11	922	47	1970.117681019
11	924	48	1984.0083266487
11	978	49	1997.9102858361
11	980	50	2011.7730940934
11	1036	51	2025.6761838896
11	1038	52	2039.5585873295
11	1101	53	2053.4266205495
11	1103	54	2067.3284383547
11	1169	55	2081.2374921273
11	1171	56	2095.1151711773
11	1238	57	2107.8121583294
11	1240	58	2116.6019557538
11	1314	59	2120.9589145361
11	1316	60	2120.4882719275
11	1394	61	2120.0185171831
11	1396	62	2119.548741932
11	1476	63	2119.0785971684
11	1478	64	2118.6072562514
11	1568	65	2118.1362503711
11	1570	66	2117.6652921457
11	1664	67	2117.1941417418
11	1666	68	2116.724042221
11	1762	69	2116.2531650327
11	1764	70	2115.7827974036
11	1866	71	2114.7194869779
11	1868	72	2112.7644801643
11	1967	73	2110.4801872596
11	1969	74	2106.008526748
11	2069	75	2101.537494339
11	2071	76	2096.3761414643
11	2176	77	2089.7611900093
11	2178	78	2083.4347492605
11	2284	79	2078.7201309539
11	2286	80	2074.7913125623
12	62	8	3.930963162637
12	86	9	5.9263112237273
12	88	10	7.8381960794392
12	118	11	9.790430662247
12	120	12	11.728100012452
12	150	13	13.629514704516
12	152	14	13.941568216505
12	184	15	13.881279769889
12	186	16	13.897868440901
12	220	17	13.925429278756
12	222	18	13.988464023101
12	257	19	13.968606978769
12	259	20	13.918509052745
12	296	21	13.924308654484
12	298	22	13.951645852409
12	336	23	13.87926841794
12	338	24	12.793519969494
12	376	25	11.84351296104
12	378	26	7.4038563960913
12	418	27	8.4727548549238
12	420	28	10.367830629347
12	462	29	12.18869854925
12	464	30	13.961659159465
12	507	31	13.954832898835
12	509	32	13.985199820679
12	554	33	13.894128147855
12	556	34	13.93747920732
12	605	35	13.922516686122
12	607	36	13.936551663636
12	654	37	13.899921349036
12	656	38	13.905686459227
12	704	39	13.974518650502
12	706	40	13.926188751743
12	756	41	13.91506882193
12	758	42	13.902084701743
12	808	43	13.906688486487
12	810	44	13.974945872892
12	863	45	13.897515056985
12	865	46	13.921723058985
12	922	47	13.971591069859
12	924	48	13.925448836959
12	978	49	13.871581884674
12	980	50	13.876423048137
12	1036	51	13.873938687814
12	1038	52	13.902598275633
12	1101	53	13.87539361449
12	1103	54	13.972987024514
12	1169	55	13.957628285089
12	1171	56	13.950985880545
12	1238	57	13.943263569523
12	1240	58	13.891897078918
12	1314	59	13.874182712052
12	1316	60	13.982985400616
12	1394	61	13.927164004399
12	1396	62	13.899862960158
12	1476	63	13.960168966714
12	1478	64	13.961850514959
12	1568	65	13.962242161995
12	1570	66	13.925234322341
12	1664	67	13.991972472956
12	1666	68	13.975208927125
12	1762	69	13.946616810667
12	1764	70	13.894927249895
12	1866	71	13.997537077854
12	1868	72	13.937148143742
12	1967	73	13.949254455173
12	1969	74	13.872561737457
12	2069	75	13.941436031195
12	2071	76	13.877849130908
12	2176	77	12.619268954948
12	2178	78	11.767659231051
12	2284	79	7.2714327337119
12	2286	80	8.4181567059542
13	86	9	1.9953480610903
13	88	10	1.9118848557118
13	118	11	1.9522345828079
13	120	12	1.9376693502045
13	150	13	1.9014146920643
13	152	14	0.31205351198868
13	184	15	-0.060288446615449
13	186	16	0.016588671011849
13	220	17	0.027560837855562
13	222	18	0.063034744344186
13	257	19	-0.019857044331729
13	259	20	-0.050097926023881
13	296	21	0.0057996017392714
13	298	22	0.027337197924499
13	336	23	-0.072377434468363
13	338	24	-1.0857484484466
13	376	25	-0.95000700845353
13	378	26	-4.439656564949
13	418	27	1.0688984588324
13	420	28	1.8950757744233
13	462	29	1.8208679199032
13	464	30	1.7729606102145
13	507	31	-0.0068262606300422
13	509	32	0.03036692184396
13	554	33	-0.091071672823745
13	556	34	0.043351059465204
13	605	35	-0.01496252119774
13	607	36	0.014034977513365
13	654	37	-0.036630314600188
13	656	38	0.0057651101914225
13	704	39	0.068832191275433
13	706	40	-0.048329898759256
13	756	41	-0.01111992981285
13	758	42	-0.012984120186884
13	808	43	0.0046037847432316
13	810	44	0.068257386405021
13	863	45	-0.077430815906265
13	865	46	0.02420800199965
13	922	47	0.049868010873906
13	924	48	-0.046142232900019
13	978	49	-0.053866952285171
13	980	50	0.0048411634634249
13	1036	51	-0.0024843603232867
13	1038	52	0.028659587819128
13	1101	53	-0.027204661143477
13	1103	54	0.09759341002442
13	1169	55	-0.015358739425428
13	1171	56	-0.0066424045432356
13	1238	57	-0.007722311022226
13	1240	58	-0.051366490605288
13	1314	59	-0.017714366866276
13	1316	60	0.10880268856417
13	1394	61	-0.055821396217215
13	1396	62	-0.027301044240593
13	1476	63	0.06030600655591
13	1478	64	0.0016815482452515
13	1568	65	0.00039164703572148
13	1570	66	-0.037007839654107
13	1664	67	0.066738150615711
13	1666	68	-0.0167635458312
13	1762	69	-0.028592116457874
13	1764	70	-0.051689560771921
13	1866	71	0.10260982795851
13	1868	72	-0.060388934111689
13	1967	73	0.01210631143069
13	1969	74	-0.076692717715632
13	2069	75	0.068874293738045
13	2071	76	-0.063586900287774
13	2176	77	-1.2585801759596
13	2178	78	-0.85160972389679
13	2284	79	-4.4962264973393
13	2286	80	1.1467239722423
14	86	9	4.2649508166984
14	88	10	5.1441608835298
14	118	11	6.2752675611406
14	120	12	7.3015557220543
14	150	13	8.2469806235914
14	152	14	3.0813423760871
14	184	15	1.825038103975
14	186	16	2.0839753981971
14	220	17	2.1237162576214
14	222	18	2.2501690272635
14	257	19	1.9687844028223
14	259	20	1.8624692368163
14	296	21	2.0505690853877
14	298	22	2.1258147014109
14	336	23	1.7844264067381
14	338	24	0.973
14	376	25	0.973
14	378	26	0.973
14	418	27	3.7575341079103
14	420	28	6.4482222684255
14	462	29	7.2140195323343
14	464	30	8.0005078452345
14	507	31	2.0112657729674
14	509	32	2.1396802881933
14	554	33	1.7230808185304
14	556	34	2.1780640158967
14	605	35	1.980720158986
14	607	36	2.0794954629949
14	654	37	1.9059152732614
14	656	38	2.0485298427513
14	704	39	2.2680539427787
14	706	40	1.8690933945628
14	756	41	1.9928741031296
14	758	42	1.9853406570184
14	808	43	2.0447410785649
14	810	44	2.2661688405632
14	863	45	1.7690384486571
14	865	46	2.1120645090544
14	922	47	2.2038504354464
14	924	48	1.8763684319447
14	978	49	1.8456610488087
14	980	50	2.0424227277346
14	1036	51	2.0176736696174
14	1038	52	2.1249196677245
14	1101	53	1.9351566644326
14	1103	54	2.3647248781457
14	1169	55	1.9828454643184
14	1171	56	2.0114971183472
14	1238	57	2.007091813677
14	1240	58	1.8558336695686
14	1314	59	1.9667740746073
14	1316	60	2.4037578966905
14	1394	61	1.844036691971
14	1396	62	1.9371616602798
14	1476	63	2.2376623461065
14	1478	64	2.0405988072341
14	1568	65	2.0362986285583
14	1570	66	1.9070037954822
14	1664	67	2.2630700095878
14	1666	68	1.9798474403324
14	1762	69	1.9372818212763
14	1764	70	1.8550225742329
14	1866	71	2.3847397299678
14	1868	72	1.8295794064806
14	1967	73	2.0743518631084
14	1969	74	1.7694347592009
14	2069	75	2.2642644670172
14	2071	76	1.8137074180615
14	2176	77	0.973
14	2178	78	0.973
14	2284	79	0.973
14	2286	80	3.8976468345674
15	88	10	2414.8652957816
15	118	11	2411.9402292009
15	120	12	2407.1594214574
15	150	13	2402.0350675649
15	152	14	2395.5354035812
15	184	15	2387.5598131203
15	186	16	2378.2983909701
15	220	17	2368.4972038758
15	222	18	2358.719633554
15	257	19	2348.9248444787
15	259	20	2339.614370346
15	296	21	2334.1997176057
15	298	22	2339.4193692133
15	336	23	2350.023330241
15	338	24	2360.3662725991
15	376	25	2373.90233667
15	378	26	2387.7152259793
15	418	27	2400.5914429313
15	420	28	2412.9398871803
15	462	29	2421.7139854309
15	464	30	2429.0882121673
15	507	31	2431.6639768599
15	509	32	2433.4302155024
15	554	33	2435.4611475593
15	556	34	2437.5533698815
15	605	35	2438.7684759141
15	607	36	2439.671540139
15	654	37	2440.6813741141
15	656	38	2441.6917844916
15	704	39	2442.7022041357
15	706	40	2443.7124593587
15	756	41	2444.7229332504
15	758	42	2445.7337078364
15	808	43	2446.7459111849
15	810	44	2447.757486716
15	863	45	2448.7683903823
15	865	46	2449.7777371067
15	922	47	2450.5176811377
15	924	48	2449.4057673637
15	978	49	2448.2921364765
15	980	50	2447.1808208324
15	1036	51	2446.0691226661
15	1038	52	2444.9566500478
15	1101	53	2443.8447802094
15	1103	54	2442.731477023
15	1169	55	2441.6197022425
15	1171	56	2440.5080080784
15	1238	57	2439.5670555097
15	1240	58	2438.6556009268
15	1314	59	2437.5062560235
15	1316	60	2431.5722499692
15	1394	61	2420.527699944
15	1396	62	2407.2382113171
15	1476	63	2393.3269784888
15	1478	64	2379.3955530388
15	1568	65	2365.4745847809
15	1570	66	2351.529199079
15	1664	67	2337.6079130118
15	1666	68	2323.6725767179
15	1762	69	2309.7385225614
15	1764	70	2295.8080973643
15	1866	71	2281.8952010303
15	1868	72	2267.9654732505
15	1967	73	2254.0466482575
15	1969	74	2240.2066991659
15	2069	75	2226.4173803013
15	2071	76	2212.7662110776
15	2176	77	2199.5729332234
15	2178	78	2186.3872113026
15	2284	79	2173.6474240444
15	2286	80	2162.5677132215
16	88	10	1578.4548774119
16	118	11	1579.5289465943
16	120	12	1581.5559881236
16	150	13	1586.7462526578
16	152	14	1593.3295168448
16	184	15	1601.4076912217
16	186	16	1610.7882359559
16	220	17	1620.7154882178
16	222	18	1630.6188199436
16	257	19	1640.5395918936
16	259	20	1650.8881406859
16	296	21	1663.2272230769
16	298	22	1674.9756418047
16	336	23	1683.991763521
16	338	24	1693.3192880014
16	376	25	1695.9020503219
16	378	26	1697.6139621651
16	418	27	1698.8314944636
16	420	28	1699.9991223291
16	462	29	1700.8287719106
16	464	30	1701.8119543158
16	507	31	1710.77248332
16	509	32	1722.3952316754
16	554	33	1735.7597972872
16	556	34	1749.5276840087
16	605	35	1763.4065813264
16	607	36	1777.3270081691
16	654	37	1791.2142166747
16	656	38	1805.1093518483
16	704	39	1819.0046144547
16	706	40	1832.8976159496
16	756	41	1846.7936245678
16	758	42	1860.6937683271
16	808	43	1874.6135603888
16	810	44	1888.5247187214
16	863	45	1902.4266375881
16	865	46	1916.3071454344
16	922	47	1930.2163243052
16	924	48	1944.0944528161
16	978	49	1957.9940131316
16	980	50	1971.8646762054
16	1036	51	1985.7401136523
16	1038	52	1999.6252172682
16	1101	53	2013.5027974071
16	1103	54	2027.3982675895
16	1169	55	2041.2746612821
16	1171	56	2055.1500487765
16	1238	57	2069.0339985425
16	1240	58	2082.9232102502
16	1314	59	2096.7668430749
16	1316	60	2109.1502521159
16	1394	61	2117.3046830418
16	1396	62	2120.90069908
16	1476	63	2120.4308352731
16	1478	64	2119.9602894429
16	1568	65	2119.4900968131
16	1570	66	2119.0190794626
16	1664	67	2118.5488760993
16	1666	68	2118.0781981768
16	1762	69	2117.6075635599
16	1764	70	2117.1370515134
16	1866	71	2116.6671315199
16	1868	72	2116.1966430303
16	1967	73	2115.7265227912
16	1969	74	2114.4884428075
16	2069	75	2112.5330108125
16	2071	76	2109.9530747626
16	2176	77	2105.4785292046
16	2178	78	2101.0065462673
16	2284	79	2095.5423098914
16	2286	80	2089.0198590728
17	118	11	4.0076977833542
17	120	12	6.1677344774264
17	150	13	8.1549676716625
17	152	14	10.178332106699
17	184	15	12.262859039094
17	186	16	13.909239285488
17	220	17	13.972104677679
17	222	18	13.964405047395
17	257	19	13.904001857305
17	259	20	13.959390929798
17	296	21	13.878038117993
17	298	22	13.946876353603
17	336	23	13.944667257406
17	338	24	13.919344021892
17	376	25	13.927560248445
17	378	26	13.871213583788
17	418	27	12.691334807668
17	420	28	11.253789109264
17	462	29	6.8021452137647
17	464	30	8.5806848426844
17	507	31	10.511503565412
17	509	32	12.634297992723
17	554	33	13.965718502484
17	556	34	13.984844662666
17	605	35	13.956789441942
17	607	36	13.956542154332
17	654	37	13.917345386401
17	656	38	13.978046209081
17	704	39	13.982312166321
17	706	40	13.915473192113
17	756	41	13.879970237834
17	758	42	13.897895857247
17	808	43	13.999869057706
17	810	44	13.978634591533
17	863	45	13.942230677728
17	865	46	13.955766034983
17	922	47	13.950300372976
17	924	48	13.917481608128
17	978	49	13.942320762996
17	980	50	13.893100212866
17	1036	51	13.91633811252
17	1038	52	13.928179549885
17	1101	53	13.968941585214
17	1103	54	13.947614409933
17	1169	55	13.993828555658
17	1171	56	13.915365449623
17	1238	57	13.876728287677
17	1240	58	13.918426910553
17	1314	59	13.974088552413
17	1316	60	13.92781890474
17	1394	61	13.871840020602
17	1396	62	13.950818891171
17	1476	63	13.896373478309
17	1478	64	13.98123223257
17	1568	65	13.934642261642
17	1570	66	13.995758003502
17	1664	67	13.879077432866
17	1666	68	13.899420192223
17	1762	69	13.964884717481
17	1764	70	13.997399434138
17	1866	71	13.963054893557
17	1868	72	13.99507131309
17	1967	73	13.959758597296
17	1969	74	13.892642100183
17	2069	75	13.940251250723
17	2071	76	13.994889584298
17	2176	77	13.944894047023
17	2178	78	13.899651392188
17	2284	79	13.918337521636
17	2286	80	12.682299991135
18	120	12	2.1600366940722
18	150	13	1.9872331942362
18	152	14	2.0233644350362
18	184	15	2.0845269323955
18	186	16	1.6463802463939
18	220	17	0.062865392190869
18	222	18	-0.0076996302837493
18	257	19	-0.060403190089856
18	259	20	0.055389072492252
18	296	21	-0.081352811804972
18	298	22	0.068838235610166
18	336	23	-0.0022090961970385
18	338	24	-0.025323235513643
18	376	25	0.0082162265526122
18	378	26	-0.056346664656886
18	418	27	-1.1798787761197
18	420	28	-1.4375456984038
18	462	29	-4.4516438954996
18	464	30	1.7785396289197
18	507	31	1.9308187227277
18	509	32	2.1227944273106
18	554	33	1.3314205097611
18	556	34	0.01912616018206
18	605	35	-0.028055220723617
18	607	36	-0.00024728761054682
18	654	37	-0.039196767930406
18	656	38	0.060700822679792
18	704	39	0.0042659572395483
18	706	40	-0.06683897420764
18	756	41	-0.035502954279073
18	758	42	0.017925619413145
18	808	43	0.10197320045903
18	810	44	-0.021234466172753
18	863	45	-0.036403913805263
18	865	46	0.013535357255023
18	922	47	-0.0054656620067544
18	924	48	-0.032818764848635
18	978	49	0.024839154868388
18	980	50	-0.049220550130123
18	1036	51	0.023237899653614
18	1038	52	0.011841437364929
18	1101	53	0.040762035329827
18	1103	54	-0.021327175281478
18	1169	55	0.046214145724662
18	1171	56	-0.078463106034324
18	1238	57	-0.038637161946388
18	1240	58	0.041698622875845
18	1314	59	0.055661641859915
18	1316	60	-0.046269647672306
18	1394	61	-0.055978884138167
18	1396	62	0.078978870569262
18	1476	63	-0.054445412862115
18	1478	64	0.084858754260932
18	1568	65	-0.046589970928617
18	1570	66	0.061115741860121
18	1664	67	-0.11668057063594
18	1666	68	0.0203427593573
18	1762	69	0.065464525257703
18	1764	70	0.032514716656879
18	1866	71	-0.034344540580641
18	1868	72	0.032016419533175
18	1967	73	-0.035312715794426
18	1969	74	-0.067116497112439
18	2069	75	0.047609150540083
18	2071	76	0.054638333574404
18	2176	77	-0.049995537274517
18	2178	78	-0.045242654834874
18	2284	79	0.018686129447767
18	2286	80	-1.2360375305007
19	120	12	4.6399364442395
19	150	13	5.459099048015
19	152	14	6.6616810382017
19	184	15	8.0324172249288
19	186	16	7.5484463594625
19	220	17	2.247674957111
19	222	18	2.0092894812461
19	257	19	1.8266349661585
19	259	20	2.2210298717235
19	296	21	1.7543037306746
19	298	22	2.264789170887
19	336	23	2.0257606197441
19	338	24	1.9456524984792
19	376	25	2.059016748537
19	378	26	1.8373388380236
19	418	27	0.973
19	420	28	0.973
19	462	29	0.973
19	464	30	5.2602175796137
19	507	31	6.6156566027659
19	509	32	8.3694083781091
19	554	33	6.5165491496521
19	556	34	2.1017560319966
19	605	35	1.9400571066544
19	607	36	2.0335662245147
19	654	37	1.8989280401226
19	656	38	2.2410813776431
19	704	39	2.0514099723484
19	706	40	1.8060532207838
19	756	41	1.9078333116417
19	758	42	2.0884562634303
19	808	43	2.3828885778754
19	810	44	1.9651224554136
19	863	45	1.910615850939
19	865	46	2.0798426520326
19	922	47	2.015384407742
19	924	48	1.9203331804895
19	978	49	2.1164070517746
19	980	50	1.8631262853673
19	1036	51	2.108230627045
19	1038	52	2.0712498573739
19	1101	53	2.1728920736305
19	1103	54	1.9617970432444
19	1169	55	2.1940726512002
19	1171	56	1.7670612526642
19	1238	57	1.8970499029483
19	1240	58	2.1703787731
19	1314	59	2.2236475952785
19	1316	60	1.876156120652
19	1394	61	1.8386234882413
19	1396	62	2.2993516664104
19	1476	63	1.8459222947006
19	1478	64	2.3228538313892
19	1568	65	1.8757004712267
19	1570	66	2.2445546956586
19	1664	67	1.6362226447506
19	1666	68	2.096714827559
19	1762	69	2.2555743425322
19	1764	70	2.1482652379368
19	1866	71	1.9194912088098
19	1868	72	2.1463276308042
19	1967	73	1.9159241804067
19	1969	74	1.8031672167249
19	2069	75	2.1926814474566
19	2071	76	2.2226060743817
19	2176	77	1.8651868385758
19	2178	78	1.8770404241569
19	2284	79	2.0931775117982
19	2286	80	0.973
20	150	13	2414.9020294819
20	152	14	2411.9226306152
20	184	15	2407.1557433844
20	186	16	2402.1104710221
20	220	17	2395.7699587477
20	222	18	2388.0304223568
20	257	19	2379.4738079484
20	259	20	2370.893774931
20	296	21	2362.3077945379
20	298	22	2353.7435980395
20	336	23	2345.1609503828
20	338	24	2337.382531011
20	376	25	2333.9513923901
20	378	26	2339.5342791209
20	418	27	2348.8453277851
20	420	28	2357.9087556405
20	462	29	2368.8976739903
20	464	30	2380.9775286298
20	507	31	2393.1030453129
20	509	32	2405.2335576123
20	554	33	2416.5418459401
20	556	34	2423.9663700609
20	605	35	2430.570008137
20	607	36	2432.1000471369
20	654	37	2433.9002697327
20	656	38	2435.9543662666
20	704	39	2437.9596728822
20	706	40	2438.9494181712
20	756	41	2439.9070256213
20	758	42	2440.9176562928
20	808	43	2441.9269052453
20	810	44	2442.9366141059
20	863	45	2443.9464281293
20	865	46	2444.9573541252
20	922	47	2445.9691156872
20	924	48	2446.979716951
20	978	49	2447.9896090399
20	980	50	2448.9998733379
20	1036	51	2450.0085675253
20	1038	52	2450.2645866362
20	1101	53	2449.1499465979
20	1103	54	2448.0369973981
20	1169	55	2446.9233345203
20	1171	56	2445.8120863364
20	1238	57	2444.7009855164
20	1240	58	2443.5879624323
20	1314	59	2442.4739204658
20	1316	60	2441.3600381962
20	1394	61	2440.2864050268
20	1396	62	2439.3445139695
20	1476	63	2438.5901630576
20	1478	64	2436.8932832642
20	1568	65	2429.488703159
20	1570	66	2417.5025738811
20	1664	67	2403.9129781366
20	1666	68	2389.9861979192
20	1762	69	2376.0739265668
20	1764	70	2362.1500415469
20	1866	71	2348.2060115275
20	1868	72	2334.2734054149
20	1967	73	2320.3213743683
20	1969	74	2306.4009303466
20	2069	75	2292.4771050191
20	2071	76	2278.5479599123
20	2176	77	2264.6368773527
20	2178	78	2250.7243448626
20	2284	79	2236.9039189327
20	2286	80	2223.1179117287
21	150	13	1578.4413889889
21	152	14	1579.5354087027
21	184	15	1581.5597135043
21	186	16	1586.6698793434
21	220	17	1593.0919447746
21	222	18	1600.9310288979
21	257	19	1609.5977004888
21	259	20	1618.2880919036
21	296	21	1626.984507191
21	298	22	1635.6588583943
21	336	23	1644.3518980779
21	338	24	1653.7452424029
21	376	25	1665.1186078088
21	378	26	1675.0684384657
21	418	27	1682.929411401
21	420	28	1691.1030376544
21	462	29	1695.1540113101
21	464	30	1696.8415124407
21	507	31	1698.123416462
21	509	32	1699.2704374064
21	554	33	1700.3397115832
21	556	34	1700.9751795586
21	605	35	1703.8619754324
21	607	36	1713.6420474732
21	654	37	1725.4884275207
21	656	38	1739.0054271705
21	704	39	1752.7795728892
21	706	40	1766.6691963989
21	756	41	1780.5653979182
21	758	42	1794.4635625677
21	808	43	1808.342725859
21	810	44	1822.2282137927
21	863	45	1836.1151479203
21	865	46	1850.0173738636
21	922	47	1863.9310904881
21	924	48	1877.8288507257
21	978	49	1891.7168584093
21	980	50	1905.6099847034
21	1036	51	1919.4815188777
21	1038	52	1933.3752725068
21	1101	53	1947.287428339
21	1103	54	1961.1784803104
21	1169	55	1975.07843991
21	1171	56	1988.9482609928
21	1238	57	2002.8162427824
21	1240	58	2016.7082169261
21	1314	59	2030.6129080458
21	1316	60	2044.5156059386
21	1394	61	2058.405807049
21	1396	62	2072.3219886608
21	1476	63	2086.2172475774
21	1478	64	2100.0155986995
21	1568	65	2111.7128415443
21	1570	66	2118.6569472738
21	1664	67	2120.7883864809
21	1666	68	2120.3179975469
21	1762	69	2119.8480986627
21	1764	70	2119.3778075166
21	1866	71	2118.9068359565
21	1868	72	2118.436250248
21	1967	73	2117.965008446
21	1969	74	2117.4948335225
21	2069	75	2117.0245443936
21	2071	76	2116.5540755838
21	2176	77	2116.0842168517
21	2178	78	2115.614309147
21	2284	79	2114.0200830428
21	2286	80	2112.0651206672
22	152	14	4.1202440707026
22	184	15	6.098204819389
22	186	16	7.9892263333931
22	220	17	9.9395148638858
22	222	18	11.888312638128
22	257	19	12.215156767303
22	259	20	12.204687935296
22	296	21	12.224623291104
22	298	22	12.210776680999
22	336	23	12.179672799767
22	338	24	12.160016026092
22	376	25	12.139849843977
22	378	26	12.143721937142
22	418	27	12.197962211408
22	420	28	12.182525644068
22	462	29	12.239106989266
22	464	30	12.235862109773
22	507	31	12.230306803957
22	509	32	12.179537976573
22	554	33	9.6862829881538
22	556	34	6.6424673210172
22	605	35	8.8478549035121
22	607	36	10.859035527671
22	654	37	12.909402498856
22	656	38	13.992245385351
22	704	39	13.943547738914
22	706	40	13.916770352069
22	756	41	13.945535122917
22	758	42	13.906703865982
22	808	43	13.929781103753
22	810	44	13.945612282939
22	863	45	13.915959525181
22	865	46	13.967522231955
22	922	47	13.972525620006
22	924	48	13.883536923684
22	978	49	13.909812615521
22	980	50	13.926507747294
22	1036	51	13.897951097498
22	1038	52	13.93396450304
22	1101	53	13.967009024217
22	1103	54	13.893721483571
22	1169	55	13.88568516843
22	1171	56	13.927406547926
22	1238	57	13.918185825639
22	1240	58	13.942741125419
22	1314	59	13.888825567171
22	1316	60	13.956811681101
22	1394	61	13.967852384013
22	1396	62	13.917130999181
22	1476	63	13.962056111419
22	1478	64	13.973261172024
22	1568	65	13.976665152721
22	1570	66	13.929094264333
22	1664	67	13.988442988638
22	1666	68	13.963501574658
22	1762	69	13.904512311171
22	1764	70	13.881385968712
22	1866	71	13.955823229789
22	1868	72	13.91319160128
22	1967	73	13.978148939102
22	1969	74	13.900433905981
22	2069	75	13.932413932714
22	2071	76	13.914297275015
22	2176	77	13.888481071207
22	2178	78	13.889434551739
22	2284	79	13.943012665312
22	2286	80	13.907442593111
23	184	15	1.9779607486865
23	186	16	1.8910215140041
23	220	17	1.9502885304927
23	222	18	1.9487977742427
23	257	19	0.32684412917498
23	259	20	-0.010468832007609
23	296	21	0.019935355808121
23	298	22	-0.013846610104666
23	336	23	-0.031103881231974
23	338	24	-0.019656773675234
23	376	25	-0.020166182115208
23	378	26	0.0038720931648282
23	418	27	0.054240274266339
23	420	28	-0.015436567340512
23	462	29	0.056581345198211
23	464	30	-0.0032448794925592
23	507	31	-0.0055553058162339
23	509	32	-0.050768827383871
23	554	33	-2.4932549884193
23	556	34	-3.0438156671366
23	605	35	2.2053875824949
23	607	36	2.0111806241586
23	654	37	2.0503669711854
23	656	38	1.082842886495
23	704	39	-0.048697646437214
23	706	40	-0.026777386844623
23	756	41	0.028764770848211
23	758	42	-0.038831256935373
23	808	43	0.023077237771357
23	810	44	0.015831179185771
23	863	45	-0.02965275775874
23	865	46	0.051562706774567
23	922	47	0.0050033880514082
23	924	48	-0.088988696322776
23	978	49	0.026275691837073
23	980	50	0.016695131773595
23	1036	51	-0.028556649796665
23	1038	52	0.036013405541889
23	1101	53	0.033044521177652
23	1103	54	-0.07328754064627
23	1169	55	-0.0080363151407798
23	1171	56	0.041721379496158
23	1238	57	-0.009220722287429
23	1240	58	0.024555299780332
23	1314	59	-0.053915558247827
23	1316	60	0.067986113929656
23	1394	61	0.01104070291156
23	1396	62	-0.050721384831705
23	1476	63	0.044925112237689
23	1478	64	0.011205060605425
23	1568	65	0.0034039806970405
23	1570	66	-0.047570888388437
23	1664	67	0.059348724305165
23	1666	68	-0.024941413979978
23	1762	69	-0.058989263486584
23	1764	70	-0.023126342459582
23	1866	71	0.07443726107711
23	1868	72	-0.042631628508678
23	1967	73	0.064957337821832
23	1969	74	-0.077715033120475
23	2069	75	0.031980026732198
23	2071	76	-0.018116657698991
23	2176	77	-0.025816203807482
23	2178	78	0.0009534805314626
23	2284	79	0.053578113573604
23	2286	80	-0.035570072201081
24	184	15	4.3320714987557
24	186	16	5.183486961616
24	220	17	6.3519610936481
24	222	18	7.4221751260776
24	257	19	2.8298121443499
24	259	20	1.8359013100526
24	296	21	1.9272118037584
24	298	22	1.8264910266966
24	336	23	1.7731570813911
24	338	24	1.8050958468359
24	376	25	1.8019031629654
24	378	26	1.8725806391293
24	418	27	2.0255422754474
24	420	28	1.8193896864997
24	462	29	2.0366725650512
24	464	30	1.8599189826534
24	507	31	1.8526149529095
24	509	32	1.7154241454235
24	554	33	0.973
24	556	34	0.973
24	605	35	6.303427561984
24	607	36	7.0154445701984
24	654	37	8.3105242583869
24	656	38	5.6895407911334
24	704	39	1.8694269918782
24	706	40	1.940528745875
24	756	41	2.1299480592744
24	758	42	1.8991694406835
24	808	43	2.1091372507868
24	810	44	2.0864880630902
24	863	45	1.9308080812489
24	865	46	2.2090898398184
24	922	47	2.0528811368149
24	924	48	1.7292056532406
24	978	49	2.1177127068995
24	980	50	2.0873649665686
24	1036	51	1.9327741224938
24	1038	52	2.1530281120875
24	1101	53	2.1466978352857
24	1103	54	1.7825965253946
24	1169	55	2.0002810933209
24	1171	56	2.1714609797662
24	1238	57	1.999553894506
24	1240	58	2.1154986829051
24	1314	59	1.8470270282863
24	1316	60	2.2631030576132
24	1394	61	2.0727204260443
24	1396	62	1.8602543209442
24	1476	63	2.1861282607859
24	1478	64	2.0738417857687
24	1568	65	2.0479224526271
24	1570	66	1.8719038420292
24	1664	67	2.237740187174
24	1666	68	1.9511766336835
24	1762	69	1.8314175593046
24	1764	70	1.9493699794006
24	1866	71	2.2846833100323
24	1868	72	1.8870266347629
24	1967	73	2.2554324657204
24	1969	74	1.7683289252042
24	2069	75	2.1393135082333
24	2071	76	1.9693351041569
24	2176	77	1.9410484918255
24	2178	78	2.0307471316685
24	2284	79	2.213052394446
24	2286	80	1.9101682516725
25	186	16	2414.866372544
25	220	17	2411.9174920589
25	222	18	2407.1873548935
25	257	19	2402.1033929951
25	259	20	2395.6770685576
25	296	21	2387.9239549194
25	298	22	2378.7440047435
25	336	23	2368.9560721758
25	338	24	2359.1622850237
25	376	25	2349.3790714815
25	378	26	2340.0066479368
25	418	27	2334.2982135796
25	420	28	2338.9199148722
25	462	29	2349.5394145362
25	464	30	2359.6285321664
25	507	31	2372.2737052037
25	509	32	2385.1868441795
25	554	33	2397.5486702835
25	556	34	2407.0889696613
25	605	35	2415.9658388555
25	607	36	2423.647086352
25	654	37	2430.5697055
25	656	38	2432.1309365664
25	704	39	2433.9420996767
25	706	40	2436.0121670167
25	756	41	2438.0026650226
25	758	42	2438.973087457
25	808	43	2439.9357083738
25	810	44	2440.9457836029
25	863	45	2441.9557050534
25	865	46	2442.966328533
25	922	47	2443.9770825638
25	924	48	2444.9875938372
25	978	49	2445.9973880129
25	980	50	2447.0079984484
25	1036	51	2448.0195114657
25	1038	52	2449.0300190145
25	1101	53	2450.0409876643
25	1103	54	2450.2291497608
25	1169	55	2449.1158151244
25	1171	56	2448.0031307412
25	1238	57	2446.8896077783
25	1240	58	2445.7771886681
25	1314	59	2444.6627922727
25	1316	60	2443.5487240007
25	1394	61	2442.4356510476
25	1396	62	2441.3226709429
25	1476	63	2440.2525785718
25	1478	64	2439.3108728111
25	1568	65	2438.5962522177
25	1570	66	2436.7990822749
25	1664	67	2429.1662416559
25	1666	68	2417.0518166292
25	1762	69	2403.4340603166
25	1764	70	2389.5047204611
25	1866	71	2375.5916553084
25	1868	72	2361.6469742537
25	1967	73	2347.7140670773
25	1969	74	2333.7898680173
25	2069	75	2319.8688041087
25	2071	76	2305.9591036874
25	2176	77	2292.0364868315
25	2178	78	2278.1079656912
25	2284	79	2264.1876915417
25	2286	80	2250.264247493
26	186	16	1578.4544820301
26	220	17	1579.5372955538
26	222	18	1581.5276954006
26	257	19	1586.6770484103
26	259	20	1593.1860297397
26	296	21	1601.0388657451
26	298	22	1610.3368905932
26	336	23	1620.2507178467
26	338	24	1630.1704749865
26	376	25	1640.0795225166
26	378	26	1650.3859643145
26	418	27	1662.6340421
26	420	28	1674.572302388
26	462	29	1683.5553562185
26	464	30	1692.6539752008
26	507	31	1695.658621354
26	509	32	1697.3425149294
26	554	33	1698.5437799906
26	556	34	1699.4458790058
26	605	35	1700.285246267
26	607	36	1700.9566909699
26	654	37	1703.861074903
26	656	38	1713.8453156259
26	704	39	1725.7636898225
26	706	40	1739.3857854959
26	756	41	1753.170717068
26	758	42	1767.0707531869
26	808	43	1780.9598423252
26	810	44	1794.8503685482
26	863	45	1808.7387800114
26	865	46	1822.6368457591
26	922	47	1836.5367068434
26	924	48	1850.4332295349
26	978	49	1864.3198907189
26	980	50	1878.2177770855
26	1036	51	1892.128075731
26	1038	52	1906.0245472016
26	1101	53	1919.9273597188
26	1103	54	1933.8175707525
26	1169	55	1947.7134334734
26	1171	56	1961.6011801884
26	1238	57	1975.4993934687
26	1240	58	1989.3838292314
26	1314	59	2003.2929440839
26	1316	60	2017.1979635302
26	1394	61	2031.0905601038
26	1396	62	2044.9819978084
26	1476	63	2058.9055836303
26	1478	64	2072.8190275338
26	1568	65	2086.7368559008
26	1570	66	2100.5148639437
26	1664	67	2112.1094423961
26	1666	68	2118.8584406646
26	1762	69	2120.7722106203
26	1764	70	2120.3017352335
26	1866	71	2119.8318095375
26	1868	72	2119.3608159879
26	1967	73	2118.8902201112
26	1969	74	2118.4199183583
26	2069	75	2117.9497224977
26	2071	76	2117.4799104491
26	2176	77	2117.0096621364
26	2178	78	2116.5392144015
26	2284	79	2116.0690452158
26	2286	80	2115.5987689644
27	220	17	4.11254450365
27	222	18	6.0975231633921
27	257	19	8.1241239797909
27	259	20	10.018434339895
27	296	21	11.94044197294
27	298	22	13.966010854098
27	336	23	13.99429374554
27	338	24	13.992908905046
27	376	25	13.889738958394
27	378	26	13.996094578244
27	418	27	13.943261206169
27	420	28	13.961094655516
27	462	29	13.829256838197
27	464	30	13.436515939642
27	507	31	13.16217219069
27	509	32	12.955925744517
27	554	33	11.26758099839
27	556	34	8.5044873526649
27	605	35	9.3420117710427
27	607	36	6.9079266154914
27	654	37	9.1319836530982
27	656	38	10.970689421588
27	704	39	12.982363875891
27	706	40	13.992697958478
27	756	41	13.936582251703
27	758	42	13.977668084782
27	808	43	13.986179260183
27	810	44	13.884867181559
27	863	45	13.927137885792
27	865	46	13.910710662541
27	922	47	13.909766360957
27	924	48	13.940070941378
27	978	49	13.877076953631
27	980	50	13.90827997843
27	1036	51	13.954862964205
27	1038	52	13.893197995736
27	1101	53	13.963183217549
27	1103	54	13.948198468271
27	1169	55	13.944161438567
27	1171	56	13.928642164022
27	1238	57	13.919632288448
27	1240	58	13.893341971666
27	1314	59	13.941880325
27	1316	60	13.998108282317
27	1394	61	13.878701872779
27	1396	62	13.982008344322
27	1476	63	13.95228849458
27	1478	64	13.945977008874
27	1568	65	13.898765254379
27	1570	66	13.884750159571
27	1664	67	13.956998247474
27	1666	68	13.973321173731
27	1762	69	13.980317651937
27	1764	70	13.967857702158
27	1866	71	13.87017407299
27	1868	72	13.907431576322
27	1967	73	13.990516319459
27	1969	74	13.997392567724
27	2069	75	13.870992829092
27	2071	76	13.910742897883
27	2176	77	13.942907783722
27	2178	78	13.901514352199
27	2284	79	13.935490652611
27	2286	80	13.969664366837
28	222	18	1.984978659742
28	257	19	2.0266008163989
28	259	20	1.8943103601038
28	296	21	1.9220076330448
28	298	22	2.0255688811579
28	336	23	0.028282891442068
28	338	24	-0.0013848404935555
28	376	25	-0.10316994665191
28	378	26	0.10635561984964
28	418	27	-0.05283337207511
28	420	28	0.017833449346945
28	462	29	-0.13183781731896
28	464	30	-0.39274089855419
28	507	31	-0.27434374895275
28	509	32	-0.20624644617294
28	554	33	-1.6883447461266
28	556	34	-2.7630936457253
28	605	35	0.83752441837784
28	607	36	-2.4340851555514
28	654	37	2.2240570376068
28	656	38	1.8387057684897
28	704	39	2.011674454303
28	706	40	1.0103340825873
28	756	41	-0.056115706774872
28	758	42	0.041085833078251
28	808	43	0.0085111754015088
28	810	44	-0.10131207862403
28	863	45	0.042270704233088
28	865	46	-0.016427223251666
28	922	47	-0.00094430158380554
28	924	48	0.030304580421653
28	978	49	-0.062993987747468
28	980	50	0.031203024799471
28	1036	51	0.046582985774148
28	1038	52	-0.061664968468248
28	1101	53	0.069985221812967
28	1103	54	-0.01498474927852
28	1169	55	-0.0040370297036123
28	1171	56	-0.015519274545367
28	1238	57	-0.0090098755736836
28	1240	58	-0.026290316781962
28	1314	59	0.048538353333717
28	1316	60	0.056227957317605
28	1394	61	-0.11940640953835
28	1396	62	0.10330647154246
28	1476	63	-0.029719849741086
28	1478	64	-0.0063114857068296
28	1568	65	-0.047211754494347
28	1570	66	-0.014015094807837
28	1664	67	0.072248087902555
28	1666	68	0.016322926257271
28	1762	69	0.0069964782055472
28	1764	70	-0.01245994977886
28	1866	71	-0.097683629167731
28	1868	72	0.03725750333164
28	1967	73	0.083084743137006
28	1969	74	0.0068762482656162
28	2069	75	-0.12639973863261
28	2071	76	0.039750068790745
28	2176	77	0.032164885839448
28	2178	78	-0.041393431522884
28	2284	79	0.033976300412323
28	2286	80	0.034173714225181
29	222	18	4.3420194955082
29	257	19	5.5193514834883
29	259	20	6.2598837528783
29	296	21	7.3741311479677
29	298	22	8.8530434321966
29	336	23	2.13365012742
29	338	24	2.0334505025289
29	376	25	1.6822325806597
29	378	26	2.3971909293526
29	418	27	1.855503707612
29	420	28	2.0948662776171
29	462	29	1.5820533004124
29	464	30	0.973
29	507	31	0.973
29	509	32	1.2919135943652
29	554	33	0.973
29	556	34	0.973
29	605	35	3.5215990826384
29	607	36	0.973
29	654	37	6.5156001891765
29	656	38	6.6226227280211
29	704	39	8.2324265791826
29	706	40	5.4451881818867
29	756	41	1.8438824401449
29	758	42	2.1749617238466
29	808	43	2.0661193061513
29	810	44	1.6880752085194
29	863	45	2.1732746516206
29	865	46	1.9746491499881
29	922	47	2.0264593789898
29	924	48	2.1345252785117
29	978	49	1.8156237109116
29	980	50	2.1340627994298
29	1036	51	2.1908906066732
29	1038	52	1.8214679161102
29	1101	53	2.2705861872936
29	1103	54	1.9831738713403
29	1169	55	2.0195663816392
29	1171	56	1.9794538530861
29	1238	57	2.0004054330977
29	1240	58	1.93992520771
29	1314	59	2.1959885866008
29	1316	60	2.2283411417848
29	1394	61	1.6270777435242
29	1396	62	2.3851117990842
29	1476	63	1.9340301948742
29	1478	64	2.0121056433488
29	1568	65	1.8703641945081
29	1570	66	1.9801814994952
29	1664	67	2.277460917713
29	1666	68	2.0910828619716
29	1762	69	2.0604034814904
29	1764	70	1.9936118250746
29	1866	71	1.6990698160563
29	1868	72	2.1542627543164
29	1967	73	2.3180133884777
29	1969	74	2.0617763986943
29	2069	75	1.6031383447134
29	2071	76	2.162986061906
29	2176	77	2.1410867290053
29	2178	78	1.8901056602043
29	2284	79	2.146355584398
29	2286	80	2.1507923006745
30	257	19	2414.8588002162
30	259	20	2411.8128147094
30	296	21	2407.1980394585
30	298	22	2402.4260893827
30	336	23	2396.4703598532
30	338	24	2389.2222769874
30	376	25	2380.6475507468
30	378	26	2371.4675885644
30	418	27	2362.2853867376
30	420	28	2353.1014532228
30	462	29	2343.9167522368
30	464	30	2335.7592630242
30	507	31	2334.0763715116
30	509	32	2342.9457734847
30	554	33	2352.7630564623
30	556	34	2362.8963906621
30	605	35	2375.8179889829
30	607	36	2388.7877361589
30	654	37	2401.7727345998
30	656	38	2414.1003036475
30	704	39	2422.4116629731
30	706	40	2429.7483392076
30	756	41	2431.8187159494
30	758	42	2433.5863239734
30	808	43	2435.6333255254
30	810	44	2437.7251014278
30	863	45	2438.8311097387
30	865	46	2439.7530554269
30	922	47	2440.7623816305
30	924	48	2441.7733011593
30	978	49	2442.7835379966
30	980	50	2443.7947770543
30	1036	51	2444.8051972518
30	1038	52	2445.8169310748
30	1101	53	2446.8271123795
30	1103	54	2447.8372403309
30	1169	55	2448.8468136862
30	1171	56	2449.85968903
30	1238	57	2450.4280289282
30	1240	58	2449.3144754737
30	1314	59	2448.1991392631
30	1316	60	2447.0859020924
30	1394	61	2445.9733171484
30	1396	62	2444.8601511701
30	1476	63	2443.7485429292
30	1478	64	2442.6356549449
30	1568	65	2441.5218806025
30	1570	66	2440.4231678097
30	1664	67	2439.4804845047
30	1666	68	2438.6159434677
30	1762	69	2437.2669850449
30	1764	70	2430.7552516428
30	1866	71	2419.3404297139
30	1868	72	2405.9348433106
30	1967	73	2392.0194124001
30	1969	74	2378.0801423873
30	2069	75	2364.1731750782
30	2071	76	2350.2312736156
30	2176	77	2336.2981928445
30	2178	78	2322.3888118805
30	2284	79	2308.4617877044
30	2286	80	2294.5128275382
31	257	19	1578.4572625495
31	259	20	1579.5757325301
31	296	21	1581.5168734081
31	298	22	1586.3502014261
31	336	23	1592.3825349454
31	338	24	1599.723844354
31	376	25	1608.4088607347
31	378	26	1617.7068977449
31	418	27	1627.0072032055
31	420	28	1636.3092626277
31	462	29	1645.6120993933
31	464	30	1655.8232780742
31	507	31	1668.6061278731
31	509	32	1677.8234253228
31	554	33	1686.4625172503
31	556	34	1694.2570089856
31	605	35	1696.1883798428
31	607	36	1697.7153751645
31	654	37	1698.9431934794
31	656	38	1700.1088474551
31	704	39	1700.8851519767
31	706	40	1702.3337102309
31	756	41	1711.7907452099
31	758	42	1723.4225047911
31	808	43	1736.8928158525
31	810	44	1750.6577649042
31	863	45	1764.5359474756
31	865	46	1778.4480041219
31	922	47	1792.3282297663
31	924	48	1806.2303667758
31	978	49	1820.1231154287
31	980	50	1834.0296465904
31	1036	51	1847.9249168085
31	1038	52	1861.8382519679
31	1101	53	1875.7302369392
31	1103	54	1889.6214881958
31	1169	55	1903.5051126648
31	1171	56	1917.4341459852
31	1238	57	1931.3353003571
31	1240	58	1945.2338942112
31	1314	59	1959.1547391778
31	1316	60	1973.0493854005
31	1394	61	1986.9358909866
31	1396	62	2000.8296486354
31	1476	63	2014.703963697
31	1478	64	2028.5942516169
31	1568	65	2042.495602442
31	1570	66	2056.3851745035
31	1664	67	2070.3130613565
31	1666	68	2084.1962146899
31	1762	69	2098.0349792624
31	1764	70	2110.155092163
31	1866	71	2117.83540574
31	1868	72	2120.8566767089
31	1967	73	2120.3866711082
31	1969	74	2119.9158603204
31	2069	75	2119.4461405855
31	2071	76	2118.9752409188
31	2176	77	2118.5046391785
31	2178	78	2118.0348379193
31	2284	79	2117.5644407459
31	2286	80	2117.0933026653
32	259	20	4.067372106413
32	296	21	5.8844240154271
32	298	22	7.537838140674
32	336	23	9.3614518548586
32	338	24	11.131813735405
32	376	25	13.055222753974
32	378	26	13.056929057404
32	418	27	13.088935566079
32	420	28	13.097759776963
32	462	29	13.007092833967
32	464	30	13.085117228884
32	507	31	13.080600649864
32	509	32	13.117051406159
32	554	33	13.130705420296
32	556	34	13.076950958216
32	605	35	13.090002827352
32	607	36	13.033971088322
32	654	37	13.019674586834
32	656	38	10.823429693182
32	704	39	6.3234296931819
32	706	40	8.6041157709741
32	756	41	10.729878066311
32	758	42	12.674055236164
32	808	43	13.986021694564
32	810	44	13.889535133126
32	863	45	13.959654321973
32	865	46	13.972242008243
32	922	47	13.884239303807
32	924	48	13.920426942427
32	978	49	13.887057281358
32	980	50	13.924890077722
32	1036	51	13.888422596853
32	1038	52	13.973124842362
32	1101	53	13.979389482583
32	1103	54	13.907495470522
32	1169	55	13.981073234761
32	1171	56	13.968595914519
32	1238	57	13.977168370693
32	1240	58	13.911225638806
32	1314	59	13.97115611963
32	1316	60	13.928424248584
32	1394	61	13.93642065672
32	1396	62	13.982039187397
32	1476	63	13.971991834943
32	1478	64	13.958216204653
32	1568	65	13.965484043353
32	1570	66	13.949256250246
32	1664	67	13.91837227551
32	1666	68	13.892609307456
32	1762	69	13.98260364667
32	1764	70	13.9460709692
32	1866	71	13.96612499878
32	1868	72	13.92864668397
32	1967	73	13.95173190474
32	1969	74	13.999156328384
32	2069	75	13.903906695854
32	2071	76	13.957942017673
32	2176	77	13.882903630293
32	2178	78	13.887649879837
32	2284	79	13.898064870127
32	2286	80	13.947231284727
33	296	21	1.8170519090141
33	298	22	1.6534141252469
33	336	23	1.8236137141846
33	338	24	1.770361880546
33	376	25	1.9234090185692
33	378	26	0.0017063034302556
33	418	27	0.032006508675405
33	420	28	0.0088242108840486
33	462	29	-0.090666942996904
33	464	30	0.078024394917302
33	507	31	-0.0045165790198354
33	509	32	0.036450756294652
33	554	33	0.013654014137574
33	556	34	-0.053754462080542
33	605	35	0.013051869135817
33	607	36	-0.056031739029569
33	654	37	-0.014296501488424
33	656	38	-2.1962448936517
33	704	39	-4.5
33	706	40	2.2806860777922
33	756	41	2.1257622953365
33	758	42	1.9441771698534
33	808	43	1.3119664584004
33	810	44	-0.09648656143807
33	863	45	0.07011918884702
33	865	46	0.012587686269544
33	922	47	-0.088002704435493
33	924	48	0.036187638619449
33	978	49	-0.03336966106901
33	980	50	0.037832796364091
33	1036	51	-0.036467480869032
33	1038	52	0.084702245509252
33	1101	53	0.0062646402209054
33	1103	54	-0.071894012060946
33	1169	55	0.073577764239161
33	1171	56	-0.012477320241741
33	1238	57	0.0085724561731322
33	1240	58	-0.065942731886171
33	1314	59	0.059930480823388
33	1316	60	-0.042731871046126
33	1394	61	0.0079964081360959
33	1396	62	0.045618530677165
33	1476	63	-0.010047352453695
33	1478	64	-0.013775630290619
33	1568	65	0.0072678387002085
33	1570	66	-0.016227793106809
33	1664	67	-0.030883974735625
33	1666	68	-0.025762968054043
33	1762	69	0.089994339214172
33	1764	70	-0.036532677470239
33	1866	71	0.020054029580205
33	1868	72	-0.037478314810432
33	1967	73	0.023085220770444
33	1969	74	0.047424423643388
33	2069	75	-0.095249632529448
33	2071	76	0.054035321818665
33	2176	77	-0.07503838737961
33	2178	78	0.0047462495439685
33	2284	79	0.010414990289137
33	2286	80	0.049166414600332
34	296	21	3.9895326670072
34	298	22	4.516813990543
34	336	23	5.7516577127992
34	338	24	6.5238969694044
34	376	25	7.9969762628647
34	378	26	1.9508699439778
34	418	27	2.049523008974
34	420	28	1.9772596869179
34	462	29	1.656536423546
34	464	30	2.1942461350964
34	507	31	1.933524872338
34	509	32	2.0664831725728
34	554	33	1.9957732435436
34	556	34	1.7780043555849
34	605	35	1.9898373780777
34	607	36	1.767304226999
34	654	37	1.8970896503876
34	656	38	0.973
34	704	39	0.973
34	706	40	6.3131172663211
34	756	41	7.2387381048755
34	758	42	7.8478531352875
34	808	43	6.4595699218881
34	810	44	1.704588734769
34	863	45	2.2706165053704
34	865	46	2.0783904543616
34	922	47	1.7325612239294
34	924	48	2.152114369954
34	978	49	1.9156327972978
34	980	50	2.1581293389031
34	1036	51	1.9053919146671
34	1038	52	2.321330931143
34	1101	53	2.0578412833151
34	1103	54	1.7884260015813
34	1169	55	2.284823692563
34	1171	56	1.993626660217
34	1238	57	2.0653843819253
34	1240	58	1.8086936113147
34	1314	59	2.2376815222912
34	1316	60	1.8880865495793
34	1394	61	2.0592000420201
34	1396	62	2.1907263189022
34	1476	63	2.0021462571644
34	1478	64	1.9882288612758
34	1568	65	2.0597735821873
34	1570	66	1.9790992877003
34	1664	67	1.9269068362018
34	1666	68	1.9416209410549
34	1762	69	2.3403282689627
34	1764	70	1.9105415782959
34	1866	71	2.1028764937507
34	1868	72	1.9057421063225
34	1967	73	2.1115273522428
34	1969	74	2.1987614863572
34	2069	75	1.7098617565463
34	2071	76	2.21630856272
34	2176	77	1.7758295182334
34	2178	78	2.0432593333983
34	2284	79	2.063317840223
34	2286	80	2.1987087625371
35	298	22	2414.8618358603
35	336	23	2411.8580234927
35	338	24	2407.0972548373
35	376	25	2401.9344958061
35	378	26	2395.4312230857
35	418	27	2388.0166858443
35	420	28	2380.605373892
35	462	29	2373.202286104
35	464	30	2365.7949478778
35	507	31	2358.3664403009
35	509	32	2350.9513089663
35	554	33	2343.5424025471
35	556	34	2336.9830596809
35	605	35	2334.0494864163
35	607	36	2337.4780572354
35	654	37	2345.6647225083
35	656	38	2353.49462478
35	704	39	2361.4060118824
35	706	40	2371.8368479757
35	756	41	2382.2867935618
35	758	42	2392.799581342
35	808	43	2403.2963759961
35	810	44	2413.8083810874
35	863	45	2422.2358128987
35	865	46	2429.714270673
35	922	47	2431.8026632929
35	924	48	2433.5620221659
35	978	49	2435.466607752
35	980	50	2437.3689128296
35	1036	51	2438.6282839838
35	1038	52	2439.4000144538
35	1101	53	2440.3203180684
35	1103	54	2441.2391912382
35	1169	55	2442.1587569923
35	1171	56	2443.0791810955
35	1238	57	2443.9995532772
35	1240	58	2444.9190472406
35	1314	59	2445.8381393547
35	1316	60	2446.7576322547
35	1394	61	2447.6773743792
35	1396	62	2448.5971823439
35	1476	63	2449.5175153755
35	1478	64	2450.4365012295
35	1568	65	2449.8932432871
35	1570	66	2448.8816068704
35	1664	67	2447.8697884678
35	1666	68	2446.8570419201
35	1762	69	2445.8451586224
35	1764	70	2444.8327473403
35	1866	71	2443.8201612772
35	1868	72	2442.805366718
35	1967	73	2441.7909601909
35	1969	74	2440.7791965613
35	2069	75	2439.8806968499
35	2071	76	2439.023641706
35	2176	77	2438.5434991483
35	2178	78	2435.2821109887
35	2284	79	2426.4820008699
35	2286	80	2413.9793964039
36	298	22	1578.4561478766
36	336	23	1579.559132101
36	338	24	1581.6189543447
36	376	25	1586.8481179941
36	378	26	1593.4350373344
36	418	27	1600.9449420925
36	420	28	1608.4515800783
36	462	29	1615.9498881185
36	464	30	1623.4525012663
36	507	31	1630.9765560506
36	509	32	1638.4870625446
36	554	33	1645.9912640564
36	556	34	1654.25662788
36	605	35	1664.1319735982
36	607	36	1673.4079156369
36	654	37	1680.0610618973
36	656	38	1687.1222638832
36	704	39	1694.0342444284
36	706	40	1695.5933249947
36	756	41	1696.9973441865
36	758	42	1698.0947219171
36	808	43	1699.0872639483
36	810	44	1700.0812442275
36	863	45	1700.8749691211
36	865	46	1702.2958563035
36	922	47	1711.6851105671
36	924	48	1723.2625865405
36	978	49	1735.7957281312
36	980	50	1748.3138628155
36	1036	51	1760.9212893676
36	1038	52	1773.5929945614
36	1101	53	1786.2489840593
36	1103	54	1798.885302119
36	1169	55	1811.5311445808
36	1171	56	1824.1887910338
36	1238	57	1836.8457234632
36	1240	58	1849.4905786617
36	1314	59	1862.1299076378
36	1316	60	1874.7747482117
36	1394	61	1887.4230161132
36	1396	62	1900.0721894475
36	1476	63	1912.7285834868
36	1478	64	1925.3664511768
36	1568	65	1938.0101199569
36	1570	66	1950.6366567686
36	1664	67	1963.2654650006
36	1666	68	1975.9058576887
36	1762	69	1988.5354758957
36	1764	70	2001.1716840323
36	1866	71	2013.8100736653
36	1868	72	2026.4760281984
36	1967	73	2039.1371395849
36	1969	74	2051.7652641796
36	2069	75	2064.4000339042
36	2071	76	2077.0627882024
36	2176	77	2090.0214020396
36	2178	78	2103.3986038361
36	2284	79	2113.9545395458
36	2286	80	2119.9059554357
37	336	23	4.0608742667126
37	338	24	6.2191981008855
37	376	25	8.1895616532882
37	378	26	10.213926542587
37	418	27	10.523003529425
37	420	28	10.602859260213
37	462	29	10.510912516553
37	464	30	10.494186494547
37	507	31	10.565519105854
37	509	32	10.58602443555
37	554	33	10.494087178512
37	556	34	10.577600009249
37	605	35	10.519033046608
37	607	36	10.612200059314
37	654	37	10.544839065542
37	656	38	10.508161969018
37	704	39	10.556259912898
37	706	40	10.601337815587
37	756	41	10.559272445299
37	758	42	10.586483303449
37	808	43	10.501477940398
37	810	44	10.539310473582
37	863	45	6.4446944556538
37	865	46	8.7002403630864
37	922	47	10.689839934287
37	924	48	12.630848485116
37	978	49	12.615105167319
37	980	50	12.618962466886
37	1036	51	12.652118238249
37	1038	52	12.72975650804
37	1101	53	12.64519745791
37	1103	54	12.616691098792
37	1169	55	12.640088570317
37	1171	56	12.636286280268
37	1238	57	12.723589814712
37	1240	58	12.697615581731
37	1314	59	12.665849226079
37	1316	60	12.642996864928
37	1394	61	12.704235324635
37	1396	62	12.644971724585
37	1476	63	12.700921515561
37	1478	64	12.685687469725
37	1568	65	12.646131060579
37	1570	66	12.684138629578
37	1664	67	12.692734957201
37	1666	68	12.672671702182
37	1762	69	12.669831698196
37	1764	70	12.680693090606
37	1866	71	12.730371075567
37	1868	72	12.716350049869
37	1967	73	12.701947715195
37	1969	74	12.681971519433
37	2069	75	12.674966320173
37	2071	76	12.672023865449
37	2176	77	13.691221291501
37	2178	78	13.93398745728
37	2284	79	13.987801299938
37	2286	80	13.999091608806
38	338	24	2.1583238341729
38	376	25	1.9703635524027
38	378	26	2.024364889299
38	418	27	0.30907698683803
38	420	28	0.079855730787386
38	462	29	-0.091946743659211
38	464	30	-0.016726022006477
38	507	31	0.07133261130657
38	509	32	0.020505329696462
[...]
191	5777	123	1629.2462926935
191	5779	124	1638.5364055103
191	5978	125	1647.9660099139
191	5980	126	1658.747220776
191	6178	127	1671.3870079424
191	6180	128	1679.7769585028
191	6386	129	1688.5339536322
191	6388	130	1694.7173013827
191	6605	131	1696.5962016545
191	6607	132	1698.0079409415
191	6822	133	1699.0550247626
191	6824	134	1700.0081522055
191	7043	135	1700.8314039633
191	7045	136	1701.808688445
191	7270	137	1710.6280994164
191	7272	138	1721.7365554981
191	7504	139	1734.8227540553
191	7506	140	1748.6100676311
191	7736	141	1762.4837724715
191	7738	142	1776.3941080831
191	7977	143	1790.2847332992
192	4999	116	4.2921992871535
192	5187	117	6.3890385901157
192	5189	118	8.2062167572414
192	5383	119	10.069799506438
192	5385	120	11.927390349197
192	5578	121	12.998449799569
192	5580	122	13.100698492496
192	5777	123	13.044219694984
192	5779	124	13.040998051829
192	5978	125	13.104197455911
192	5980	126	13.059030961256
192	6178	127	13.056054138508
192	6180	128	13.105240905694
192	6386	129	13.105407843188
192	6388	130	13.031762008766
192	6605	131	13.111258231547
192	6607	132	12.926308213494
192	6822	133	9.9791240681215
192	6824	134	10.297096617017
192	7043	135	6.8008817894182
192	7045	136	8.4514175470343
192	7270	137	10.310649900942
192	7272	138	12.147982091928
192	7504	139	13.975418462842
192	7506	140	13.92873032806
192	7736	141	13.87993150441
192	7738	142	13.996927824356
192	7977	143	13.883532070455
193	5187	117	2.0968393029622
193	5189	118	1.8171781671257
193	5383	119	1.8635827491968
193	5385	120	1.8575908427592
193	5578	121	1.0710594503715
193	5580	122	0.10224869292695
193	5777	123	-0.056478797511662
193	5779	124	-0.0032216431549763
193	5978	125	0.063199404082262
193	5980	126	-0.045166494655422
193	6178	127	-0.0029768227483142
193	6180	128	0.049186767186038
193	6386	129	0.00016693749464913
193	6388	130	-0.073645834422203
193	6605	131	0.079496222781017
193	6607	132	-0.18495001805347
193	6822	133	-2.9471841453722
193	6824	134	0.31797254889517
193	7043	135	-3.4962148275985
193	7045	136	1.6505357576162
193	7270	137	1.859232353908
193	7272	138	1.8373321909853
193	7504	139	1.8274363709141
193	7506	140	-0.046688134782016
193	7736	141	-0.048798823649994
193	7738	142	0.1169963199459
193	7977	143	-0.11339575390099
194	5187	117	4.6709252960266
194	5189	118	5.1507486498894
194	5383	119	6.2126769618753
194	5385	120	7.1817747034554
194	5578	121	5.2951581330384
194	5580	122	2.2725136063109
194	5777	123	1.7667377238182
194	5779	124	1.9338551564235
194	5978	125	2.1496130768417
194	5980	126	1.8035522187455
194	6178	127	1.9360505445216
194	6180	128	2.105471972606
194	6386	129	1.9506655590722
194	6388	130	1.7118037126666
194	6605	131	2.2018923378261
194	6607	132	1.3569258541834
194	6822	133	0.973
194	6824	134	2.4966722655359
194	7043	135	0.973
194	7045	136	4.9352587533286
194	7270	137	6.3285885202158
194	7272	138	7.2407188399811
194	7504	139	8.1912732447517
194	7506	140	1.8748341382945
194	7736	141	1.8633541792936
194	7738	142	2.433191564832
194	7977	143	1.6475409277925
195	5189	118	2414.8421889067
195	5383	119	2411.8412578211
195	5385	120	2407.2366500119
195	5578	121	2402.4211110438
195	5580	122	2396.1711624342
195	5777	123	2388.5172655507
195	5779	124	2380.3446820602
195	5978	125	2372.1786240462
195	5980	126	2364.0029046416
195	6178	127	2355.8361087854
195	6180	128	2347.6843740067
195	6386	129	2339.9625909684
195	6388	130	2334.6668089847
195	6605	131	2335.5093247773
195	6607	132	2344.3975986965
195	6822	133	2353.0587686084
195	6824	134	2361.8679401967
195	7043	135	2373.3615957847
195	7045	136	2384.8783052496
195	7270	137	2396.4453164807
195	7272	138	2408.0088912965
195	7504	139	2418.4757125878
195	7506	140	2425.7894773388
195	7736	141	2431.0435443841
195	7738	142	2432.681963033
195	7977	143	2434.6296534654
196	5189	118	1578.463362135
196	5383	119	1579.5652883686
196	5385	120	1581.4777662372
196	5578	121	1586.3552437974
196	5580	122	1592.6855807118
196	5777	123	1600.4379238132
196	5779	124	1608.7156249899
196	5978	125	1616.9867167575
196	5980	126	1625.2675941838
196	6178	127	1633.5394332837
196	6180	128	1641.7960175881
196	6386	129	1650.4423640911
196	6388	130	1660.4142175335
196	6605	131	1671.5538882222
196	6607	132	1678.9958614903
196	6822	133	1686.72919787
196	6824	134	1694.1032881225
196	7043	135	1695.8212266378
196	7045	136	1697.3057919107
196	7270	137	1698.4394505201
196	7272	138	1699.5328637389
196	7504	139	1700.5225715889
196	7506	140	1701.0807492454
196	7736	141	1706.6897221543
196	7738	142	1717.4713499593
196	7977	143	1730.2881433554
197	5383	119	4.099163855175
197	5385	120	5.8564154620892
197	5578	121	7.7936893133242
197	5580	122	9.7622672545495
197	5777	123	11.652818312387
197	5779	124	11.633918032149
197	5978	125	11.555939600587
197	5980	126	11.572145621903
197	6178	127	11.649701984381
197	6180	128	11.630712793212
197	6386	129	11.600356456263
197	6388	130	11.655971777454
197	6605	131	11.62142197209
197	6607	132	11.570913617898
197	6822	133	11.642839388278
197	6824	134	11.56057646975
197	7043	135	11.594562031893
197	7045	136	11.621860965396
197	7270	137	11.574098124628
197	7272	138	11.672098251936
197	7504	139	8.7468889125161
197	7506	140	7.7968889125161
197	7736	141	9.770374664823
197	7738	142	11.854988474595
197	7977	143	13.783054530363
198	5385	120	1.7572516069142
198	5578	121	1.9372738512349
198	5580	122	1.9685779412254
198	5777	123	1.8905510578377
198	5779	124	-0.018900280238595
198	5978	125	-0.077978431561496
198	5980	126	0.016206021315885
198	6178	127	0.077556362478061
198	6180	128	-0.018989191169384
198	6386	129	-0.030356336948463
198	6388	130	0.055615321190563
198	6605	131	-0.034549805363641
198	6607	132	-0.050508354192134
198	6822	133	0.071925770379602
198	6824	134	-0.082262918527704
198	7043	135	0.033985562142917
198	7045	136	0.027298933502752
198	7270	137	-0.04776284076739
198	7272	138	0.098000127307605
198	7504	139	-2.9252093394197
198	7506	140	-0.95
198	7736	141	1.9734857523069
198	7738	142	2.0846138097718
198	7977	143	1.9280660557677
199	5385	120	3.8912469078023
199	5578	121	5.168440869592
199	5580	122	6.2983635323085
199	5777	123	7.1275942011634
199	5779	124	1.7636904676849
199	5978	125	1.5928470200576
199	5980	126	1.8565946533158
199	6178	127	2.0357824135269
199	6180	128	1.763181034138
199	6386	129	1.7289415295627
199	6388	130	1.9748036603367
199	6605	131	1.7188457480012
199	6607	132	1.6704456390899
199	6822	133	2.0192661151328
199	6824	134	1.5812182319336
199	7043	135	1.9082782994619
199	7045	136	1.8921098856232
199	7270	137	1.678336907891
199	7272	138	2.0956332165739
199	7504	139	0.973
199	7506	140	0.973
199	7736	141	6.3143715461648
199	7738	142	7.7916484446607
199	7977	143	8.4212677898141
200	5578	121	2414.8587667713
200	5580	122	2411.9356476427
200	5777	123	2407.3229182976
200	5779	124	2402.4784541581
200	5978	125	2396.261341464
200	5980	126	2388.6892881746
200	6178	127	2380.1052247776
200	6180	128	2371.4705308621
200	6386	129	2362.8369877451
200	6388	130	2354.2115901944
200	6605	131	2345.5864398344
200	6607	132	2337.7150731951
200	6822	133	2333.9824690933
200	6824	134	2339.2355641905
200	7043	135	2348.656755153
200	7045	136	2357.7701254756
200	7270	137	2368.8062111773
200	7272	138	2380.9773796396
200	7504	139	2393.1739807205
200	7506	140	2404.2107271166
200	7736	141	2414.9667637429
200	7738	142	2422.97381324
200	7977	143	2430.3004373846
201	5578	121	1578.45727483
201	5580	122	1579.5306289187
201	5777	123	1581.3903883481
201	5779	124	1586.2971631223
201	5978	125	1592.5942417784
201	5980	126	1600.2636885941
201	6178	127	1608.9581622276
201	6180	128	1617.7039176021
201	6386	129	1626.4485073769
201	6388	130	1635.1848468138
201	6605	131	1643.9209358813
201	6607	132	1653.3195366496
201	6822	133	1664.678354512
201	6824	134	1674.8272081958
201	7043	135	1682.7593518784
201	7045	136	1690.9780174997
201	7270	137	1695.140340508
201	7272	138	1696.8414947074
201	7504	139	1698.1301238788
201	7506	140	1699.1737219524
201	7736	141	1700.1907770429
201	7738	142	1700.9177041072
201	7977	143	1703.0598380724
202	5580	122	3.9084870939956
202	5777	123	5.874779334117
202	5779	124	7.749979970462
202	5978	125	9.7091771264302
202	5980	126	11.708101021959
202	6178	127	12.274391028838
202	6180	128	12.307808207281
202	6386	129	12.308748868535
202	6388	130	12.241907001616
202	6605	131	12.243169415198
202	6607	132	12.250760608947
202	6822	133	12.307411877365
202	6824	134	12.258549885189
202	7043	135	12.282287218318
202	7045	136	12.244854954549
202	7270	137	12.337866502417
202	7272	138	12.287467966704
202	7504	139	12.319318765067
202	7506	140	10.681669512934
202	7736	141	10.420187867503
202	7738	142	6.6604631896903
202	7977	143	9.032487251738
203	5777	123	1.9662922401214
203	5779	124	1.875200636345
203	5978	125	1.9591971559683
203	5980	126	1.998923895529
203	6178	127	0.5662900068783
203	6180	128	0.033417178443633
203	6386	129	0.00094066125340753
203	6388	130	-0.066841866918839
203	6605	131	0.0012624135822978
203	6607	132	0.0075911937491036
203	6822	133	0.056651268417482
203	6824	134	-0.048861992175226
203	7043	135	0.02373733312823
203	7045	136	-0.037432263768279
203	7270	137	0.09301154786721
203	7272	138	-0.050398535712157
203	7504	139	0.031850798362866
203	7506	140	-1.6376492521333
203	7736	141	-0.26148164543063
203	7738	142	-3.759724677813
203	7977	143	2.3720240620477
204	5777	123	4.1960492258214
204	5779	124	5.0292565623112
204	5978	125	6.2472702646947
204	5980	126	7.4633298515258
204	6178	127	3.5481083937277
204	6180	128	1.9750824933818
204	6386	129	1.8788363237823
204	6388	130	1.6728266331179
204	6605	131	1.8738683837751
204	6607	132	1.8932377386483
204	6822	133	2.0439578597693
204	6824	134	1.7271716877057
204	7043	135	1.9439239992465
204	7045	136	1.7598318548831
204	7270	137	2.1552389875809
204	7272	138	1.7248831913111
204	7504	139	1.9715636298613
204	7506	140	0.973
204	7736	141	0.973
204	7738	142	0.973
204	7977	143	6.7772950816101
205	5779	124	2414.8563562874
205	5978	125	2411.8709679041
205	5980	126	2407.1818897024
205	6178	127	2402.2312804888
205	6180	128	2396.0103943149
205	6386	129	2388.4985765318
205	6388	130	2379.6307286884
205	6605	131	2369.8595297664
205	6607	132	2360.0804125357
205	6822	133	2350.3101462112
205	6824	134	2340.8284313077
205	7043	135	2334.5169715756
205	7045	136	2337.8942056543
205	7270	137	2348.5714077116
205	7272	138	2358.8942487445
205	7504	139	2371.5561207605
205	7506	140	2384.0070775808
205	7736	141	2395.8574311394
205	7738	142	2405.8457594087
205	7977	143	2414.8906237447
206	5779	124	1578.4581599468
206	5978	125	1579.5543789808
206	5980	126	1581.5332308868
206	6178	127	1586.5475159977
206	6180	128	1592.8484166684
206	6386	129	1600.4568532147
206	6388	130	1609.4387613973
206	6605	131	1619.335639772
206	6607	132	1629.2405383028
206	6822	133	1639.1364720855
206	6824	134	1649.3339536963
206	7043	135	1661.3165965574
206	7045	136	1673.7439805111
206	7270	137	1682.6823834181
206	7272	138	1691.9917800194
206	7504	139	1695.5513651427
206	7506	140	1697.2020963756
206	7736	141	1698.3838620353
206	7738	142	1699.3283251738
206	7977	143	1700.1835774975
207	5978	125	4.076561782019
207	5980	126	6.0300077411707
207	6178	127	7.8709276547691
207	6180	128	9.5823817496689
207	6386	129	11.552415186971
207	6388	130	13.489580010598
207	6605	131	13.945355199496
207	6607	132	13.907006167264
207	6822	133	13.871612211748
207	6824	134	13.951321379601
207	7043	135	13.892443370023
207	7045	136	13.976141884367
207	7270	137	13.872301705973
207	7272	138	13.729418963554
207	7504	139	13.470163912276
207	7506	140	11.999747868723
207	7736	141	11.786958645297
207	7738	142	8.6819771291236
207	7977	143	9.4806880398793
208	5980	126	1.9534459591517
208	6178	127	1.8409199135983
208	6180	128	1.7114540948998
208	6386	129	1.9700334373023
208	6388	130	1.9371648236271
208	6605	131	0.45577518889811
208	6607	132	-0.038349032232073
208	6822	133	-0.035393955516628
208	6824	134	0.079709167852998
208	7043	135	-0.058878009577748
208	7045	136	0.083698514343705
208	7270	137	-0.10384017839329
208	7272	138	-0.14288274241983
208	7504	139	-0.25925505127756
208	7506	140	-1.4704160435526
208	7736	141	-0.21278922342674
208	7738	142	-3.1049815161731
208	7977	143	0.79871091075566
209	5980	126	4.2599522117348
209	6178	127	5.0267680881708
209	6180	128	5.605889218242
209	6386	129	7.2945483450565
209	6388	130	8.2851992498627
209	6605	131	3.5650381160978
209	6607	132	1.9008136162889
209	6822	133	1.9074200449959
209	6824	134	2.3018680303928
209	7043	135	1.8307333206411
209	7045	136	2.3183205318695
209	7270	137	1.6786530916885
209	7272	138	1.5386104345728
209	7504	139	1.1439616197708
209	7506	140	0.973
209	7736	141	1.2254204464214
209	7738	142	0.973
209	7977	143	3.471000975776
210	6178	127	2414.8836791968
210	6180	128	2411.9936076934
210	6386	129	2407.3079390592
210	6388	130	2402.2657910006
210	6605	131	2395.820086294
210	6607	132	2387.9772149422
210	6822	133	2379.1957200202
210	6824	134	2370.3831985454
210	7043	135	2361.5565889121
210	7045	136	2352.7425568126
210	7270	137	2343.9293670645
210	7272	138	2336.1073660735
210	7504	139	2333.9088620376
210	7506	140	2341.6948745142
210	7736	141	2351.1771932673
210	7738	142	2360.5018049735
210	7977	143	2372.7091618147
211	6178	127	1578.4481271179
211	6180	128	1579.5093462905
211	6386	129	1581.4055602532
211	6388	130	1586.5125616034
211	6605	131	1593.0411724756
211	6607	132	1600.9849206787
211	6822	133	1609.8793652486
211	6824	134	1618.8052354427
211	7043	135	1627.7453749999
211	7045	136	1636.6727752481
211	7270	137	1645.5993223106
211	7272	138	1655.3776519923
211	7504	139	1667.5436392101
211	7506	140	1676.8132491782
211	7736	141	1685.0323460996
211	7738	142	1693.441514492
211	7977	143	1695.7237083642
212	6180	128	3.9824005470828
212	6386	129	6.0836882796402
212	6388	130	7.9552716536967
212	6605	131	10.100705959763
212	6607	132	11.975236348899
212	6822	133	12.585008563524
212	6824	134	12.579582694048
212	7043	135	12.549659891423
212	7045	136	12.505895157306
212	7270	137	12.577413623658
212	7272	138	12.55013593389
212	7504	139	12.498767518877
212	7506	140	12.612673348718
212	7736	141	12.541617096482
212	7738	142	12.492684076397
212	7977	143	12.564390132815
213	6386	129	2.1012877325574
213	6388	130	1.8715833740565
213	6605	131	2.145434306066
213	6607	132	1.8745303891366
213	6822	133	0.60977221462432
213	6824	134	-0.0054258694755838
213	7043	135	-0.029922802625224
213	7045	136	-0.043764734116849
213	7270	137	0.071518466351554
213	7272	138	-0.027277689767072
213	7504	139	-0.051368415013421
213	7506	140	0.11390582984081
213	7736	141	-0.071056252236014
213	7738	142	-0.048933020085096
213	7977	143	0.071706056417899
214	6386	129	4.5051202836859
214	6388	130	5.1285093364908
214	6605	131	6.9150227279757
214	6607	132	7.2562844975478
214	6822	133	3.7506657344486
214	6824	134	1.8842851966478
214	7043	135	1.8074814899672
214	7045	136	1.7620638389122
214	7270	137	2.1173186250485
214	7272	138	1.8155221628539
214	7504	139	1.7385825883627
214	7506	140	2.2500203653912
214	7736	141	1.6824736096304
214	7738	142	1.7454335193504
214	7977	143	2.1164635588703
215	6388	130	2414.8720430041
215	6605	131	2412.0316223054
215	6607	132	2407.553123147
215	6822	133	2402.9272228047
215	6824	134	2396.966894972
215	7043	135	2389.6715151991
215	7045	136	2381.0820835447
215	7270	137	2372.107149969
215	7272	138	2363.1110634515
215	7504	139	2354.131922456
215	7506	140	2345.141824697
215	7736	141	2337.0082265893
215	7738	142	2333.8669623059
215	7977	143	2340.9192091275
216	6388	130	1578.4523998667
216	6605	131	1579.4953875234
216	6607	132	1581.1572225504
216	6822	133	1585.8426223081
216	6824	134	1591.8796132756
216	7043	135	1599.2688279347
216	7045	136	1607.9687388744
216	7270	137	1617.0591101516
216	7272	138	1626.1709064441
216	7504	139	1635.2655392578
216	7506	140	1644.3712697634
216	7736	141	1654.2244103197
216	7738	142	1666.3147006687
216	7977	143	1676.1868527317
217	6605	131	3.8414571175372
217	6607	132	5.5578511554349
217	6822	133	7.4139909626192
217	6824	134	9.3204866696705
217	7043	135	11.237977716007
217	7045	136	12.846164658443
217	7270	137	12.816154700006
217	7272	138	12.766615749
217	7504	139	12.777636974313
217	7506	140	12.761643238318
217	7736	141	12.785419277871
217	7738	142	12.740313014687
217	7977	143	12.822930420973
218	6607	132	1.7163940378977
218	6822	133	1.8561398071842
218	6824	134	1.9064957070514
218	7043	135	1.9174910463369
218	7045	136	1.6081869424355
218	7270	137	-0.030009958436713
218	7272	138	-0.049538951006252
218	7504	139	0.011021225312724
218	7506	140	-0.015993735995144
218	7736	141	0.02377603955334
218	7738	142	-0.045106263183989
218	7977	143	0.0826174062863
219	6607	132	3.6929808668935
219	6822	133	4.8217960970344
219	6824	134	5.916859759892
219	7043	135	6.9764723776048
219	7045	136	6.9043625184088
219	7270	137	1.8300267461894
219	7272	138	1.7656630139957
219	7504	139	1.9530509936293
219	7506	140	1.8684281758352
219	7736	141	1.993100658442
219	7738	142	1.7771327526696
219	7977	143	2.1786685008369
220	6822	133	2414.8835599658
220	6824	134	2412.0155197452
220	7043	135	2407.3564201684
220	7045	136	2402.3161576297
220	7270	137	2395.9097706537
220	7272	138	2388.1586359171
220	7504	139	2379.6386094847
220	7506	140	2371.1156633586
220	7736	141	2362.5911950885
220	7738	142	2354.0661823745
220	7977	143	2345.5368911185
221	6822	133	1578.4481708985
221	6824	134	1579.5013002995
221	7043	135	1581.3564555692
221	7045	136	1586.4615471466
221	7270	137	1592.950334575
221	7272	138	1600.8011662252
221	7504	139	1609.4307792364
221	7506	140	1618.0633494947
221	7736	141	1626.6974614756
221	7738	142	1635.3321249038
221	7977	143	1643.9711219044
222	6824	134	4.0076643208797
222	7043	135	5.9565067090104
222	7045	136	8.0938856706662
222	7270	137	9.8994638825777
222	7272	138	11.951166485991
222	7504	139	12.133273773763
222	7506	140	12.086446646008
222	7736	141	12.126803846724
222	7738	142	12.188331644776
222	7977	143	12.133200977748
223	7043	135	1.9488423881307
223	7045	136	2.1373789616558
223	7270	137	1.8055782119115
223	7272	138	2.0517026034137
223	7504	139	0.18210728777109
223	7506	140	-0.046827127754224
223	7736	141	0.040357200715226
223	7738	142	0.061527798052412
223	7977	143	-0.055130667027552
224	7043	135	4.2144634856684
224	7045	136	5.718659805645
224	7270	137	5.9848664785938
224	7272	138	7.7535917575433
224	7504	139	2.3928211429169
224	7506	140	1.7197560547902
224	7736	141	1.9776881605932
224	7738	142	2.0459612861693
224	7977	143	1.6991036221722
225	7045	136	2414.8606275192
225	7270	137	2411.7675365397
225	7272	138	2406.9670441359
225	7504	139	2401.6902585772
225	7506	140	2395.0413960395
225	7736	141	2387.1206568544
225	7738	142	2377.8074452318
225	7977	143	2368.0261674369
226	7045	136	1578.4565915735
226	7270	137	1579.5923584383
226	7272	138	1581.7508398471
226	7504	139	1587.0954966601
226	7506	140	1593.8298784271
226	7736	141	1601.8524960177
226	7738	142	1611.2854963532
226	7977	143	1621.1925832378
227	7270	137	4.2020141742253
227	7272	138	6.2547166510895
227	7504	139	8.4094587924858
227	7506	140	10.337069441589
227	7736	141	12.133498071296
227	7738	142	13.874075698839
227	7977	143	13.885680944896
228	7272	138	2.0527024768642
228	7504	139	2.1547421413963
228	7506	140	1.9276106491033
228	7736	141	1.7964286297071
228	7738	142	1.7405776275424
228	7977	143	0.011605246057734
229	7272	138	4.5285485072937
229	7504	139	5.9375826710348
229	7506	140	6.512827625732
229	7736	141	7.1134058964697
229	7738	142	7.8458806320652
229	7977	143	2.0660101570186
230	7504	139	2414.8833766948
230	7506	140	2411.9736998194
230	7736	141	2407.3316752824
230	7738	142	2402.3550032958
230	7977	143	2396.1245509364
231	7504	139	1578.4482381949
231	7506	140	1579.5166563578
231	7736	141	1581.381518729
231	7738	142	1586.4222018383
231	7977	143	1592.7327917377
232	7506	140	3.9728593152307
232	7736	141	5.9612720722227
232	7738	142	7.8485327200021
232	7977	143	9.7398787253757
233	7736	141	1.988412756992
233	7738	142	1.8872606477793
233	7977	143	1.8913460053736
234	7736	141	4.2738278402126
234	7738	142	5.1030219065469
234	7977	143	6.1047844628984
235	7738	142	2414.8344336114
235	7977	143	2411.9458734991
236	7738	142	1578.4662098391
236	7977	143	1579.5268740375
237	7977	143	3.8298766437329

