version 2
run Default-0-20230823-08:19:34-3726
attr configname Default
attr datetime 20230823-08:19:34
attr experiment Default
attr inifile omnetpp.ini
attr iterationvars ""
attr iterationvarsf ""
attr measurement ""
attr network RSUExampleScenario
attr processid 3726
attr repetition 0
attr replication #0
attr resultdir results
attr runnumber 0
attr seedset 0
param *.playgroundSizeX 2500m
param *.playgroundSizeY 2500m
param *.playgroundSizeZ 50m
param *.annotations.draw true
param *.obstacles.obstacles "xmldoc(\"config.xml\", \"//AnalogueModel[@type='SimpleObstacleShadowing']/obstacles\")"
param *.manager.updateInterval 1s
param *.manager.host "\"localhost\""
param *.manager.port 9999
param *.manager.autoShutdown true
param *.manager.launchConfig "xmldoc(\"erlangen.launchd.xml\")"
param *.rsu[0].mobility.x 2000
param *.rsu[0].mobility.y 2000
param *.rsu[0].mobility.z 3
param *.rsu[*].applType "\"TraCIDemoRSU11p\""
param *.rsu[*].appl.headerLength "80 bit"
param *.rsu[*].appl.sendBeacons false
param *.rsu[*].appl.dataOnSch false
param *.rsu[*].appl.beaconInterval 1s
param *.rsu[*].appl.beaconUserPriority 7
param *.rsu[*].appl.dataUserPriority 5
param *.rsu[*].nic.phy80211p.antennaOffsetZ "0 m"
param *.connectionManager.sendDirect true
param *.connectionManager.maxInterfDist 2600m
param *.connectionManager.drawMaxIntfDist false
param *.**.nic.mac1609_4.useServiceChannel false
param *.**.nic.mac1609_4.txPower 20mW
param *.**.nic.mac1609_4.bitrate 6Mbps
param *.**.nic.phy80211p.minPowerLevel -110dBm
param *.**.nic.phy80211p.useNoiseFloor true
param *.**.nic.phy80211p.noiseFloor -98dBm
param *.**.nic.phy80211p.decider "xmldoc(\"config.xml\")"
param *.**.nic.phy80211p.analogueModels "xmldoc(\"config.xml\")"
param *.**.nic.phy80211p.usePropagationDelay true
param *.**.nic.phy80211p.antenna "xmldoc(\"antenna.xml\", \"/root/Antenna[@id='monopole']\")"
param *.node[*].nic.phy80211p.antennaOffsetY "0 m"
param *.node[*].nic.phy80211p.antennaOffsetZ "1.895 m"
param *.node[*].applType "\"TraCIDemo11p\""
param *.node[*].appl.headerLength "80 bit"
param *.node[*].appl.sendBeacons false
param *.node[*].appl.dataOnSch false
param *.node[*].appl.beaconInterval 1s
param *.node[*].veinsmobility.x 0
param *.node[*].veinsmobility.y 0
param *.node[*].veinsmobility.z 0
param *.node[*].veinsmobility.setHostSpeed false

vector 0 RSUExampleScenario.node[0].veinsmobility posx ETV
vector 1 RSUExampleScenario.node[0].veinsmobility posy ETV
vector 2 RSUExampleScenario.node[0].veinsmobility speed ETV
vector 3 RSUExampleScenario.node[0].veinsmobility acceleration ETV
vector 4 RSUExampleScenario.node[0].veinsmobility co2emission ETV
vector 5 RSUExampleScenario.node[1].veinsmobility posx ETV
vector 6 RSUExampleScenario.node[1].veinsmobility posy ETV
vector 7 RSUExampleScenario.node[1].veinsmobility speed ETV
vector 8 RSUExampleScenario.node[1].veinsmobility acceleration ETV
vector 9 RSUExampleScenario.node[1].veinsmobility co2emission ETV
vector 10 RSUExampleScenario.node[2].veinsmobility posx ETV
vector 11 RSUExampleScenario.node[2].veinsmobility posy ETV
vector 12 RSUExampleScenario.node[2].veinsmobility speed ETV
vector 13 RSUExampleScenario.node[2].veinsmobility acceleration ETV
vector 14 RSUExampleScenario.node[2].veinsmobility co2emission ETV
vector 15 RSUExampleScenario.node[3].veinsmobility posx ETV
vector 16 RSUExampleScenario.node[3].veinsmobility posy ETV
vector 17 RSUExampleScenario.node[3].veinsmobility speed ETV
vector 18 RSUExampleScenario.node[3].veinsmobility acceleration ETV
vector 19 RSUExampleScenario.node[3].veinsmobility co2emission ETV
vector 20 RSUExampleScenario.node[4].veinsmobility posx ETV
vector 21 RSUExampleScenario.node[4].veinsmobility posy ETV
vector 22 RSUExampleScenario.node[4].veinsmobility speed ETV
vector 23 RSUExampleScenario.node[4].veinsmobility acceleration ETV
vector 24 RSUExampleScenario.node[4].veinsmobility co2emission ETV
vector 25 RSUExampleScenario.node[5].veinsmobility posx ETV
vector 26 RSUExampleScenario.node[5].veinsmobility posy ETV
vector 27 RSUExampleScenario.node[5].veinsmobility speed ETV
vector 28 RSUExampleScenario.node[5].veinsmobility acceleration ETV
vector 29 RSUExampleScenario.node[5].veinsmobility co2emission ETV
vector 30 RSUExampleScenario.node[6].veinsmobility posx ETV
vector 31 RSUExampleScenario.node[6].veinsmobility posy ETV
vector 32 RSUExampleScenario.node[6].veinsmobility speed ETV
vector 33 RSUExampleScenario.node[6].veinsmobility acceleration ETV
vector 34 RSUExampleScenario.node[6].veinsmobility co2emission ETV
vector 35 RSUExampleScenario.node[7].veinsmobility posx ETV
vector 36 RSUExampleScenario.node[7].veinsmobility posy ETV
vector 37 RSUExampleScenario.node[7].veinsmobility speed ETV
vector 38 RSUExampleScenario.node[7].veinsmobility acceleration ETV
vector 39 RSUExampleScenario.node[7].veinsmobility co2emission ETV
vector 40 RSUExampleScenario.node[8].veinsmobility posx ETV
vector 41 RSUExampleScenario.node[8].veinsmobility posy ETV
vector 42 RSUExampleScenario.node[8].veinsmobility speed ETV
vector 43 RSUExampleScenario.node[8].veinsmobility acceleration ETV
vector 44 RSUExampleScenario.node[8].veinsmobility co2emission ETV
vector 45 RSUExampleScenario.node[9].veinsmobility posx ETV
vector 46 RSUExampleScenario.node[9].veinsmobility posy ETV
vector 47 RSUExampleScenario.node[9].veinsmobility speed ETV
vector 48 RSUExampleScenario.node[9].veinsmobility acceleration ETV
vector 49 RSUExampleScenario.node[9].veinsmobility co2emission ETV
vector 50 RSUExampleScenario.node[10].veinsmobility posx ETV
vector 51 RSUExampleScenario.node[10].veinsmobility posy ETV
vector 52 RSUExampleScenario.node[10].veinsmobility speed ETV
vector 53 RSUExampleScenario.node[10].veinsmobility acceleration ETV
vector 54 RSUExampleScenario.node[10].veinsmobility co2emission ETV
vector 55 RSUExampleScenario.node[11].veinsmobility posx ETV
vector 56 RSUExampleScenario.node[11].veinsmobility posy ETV
vector 57 RSUExampleScenario.node[11].veinsmobility speed ETV
vector 58 RSUExampleScenario.node[11].veinsmobility acceleration ETV
vector 59 RSUExampleScenario.node[11].veinsmobility co2emission ETV
vector 60 RSUExampleScenario.node[12].veinsmobility posx ETV
vector 61 RSUExampleScenario.node[12].veinsmobility posy ETV
vector 62 RSUExampleScenario.node[12].veinsmobility speed ETV
vector 63 RSUExampleScenario.node[12].veinsmobility acceleration ETV
vector 64 RSUExampleScenario.node[12].veinsmobility co2emission ETV
vector 65 RSUExampleScenario.node[13].veinsmobility posx ETV
vector 66 RSUExampleScenario.node[13].veinsmobility posy ETV
vector 67 RSUExampleScenario.node[13].veinsmobility speed ETV
vector 68 RSUExampleScenario.node[13].veinsmobility acceleration ETV
vector 69 RSUExampleScenario.node[13].veinsmobility co2emission ETV
vector 70 RSUExampleScenario.node[14].veinsmobility posx ETV
vector 71 RSUExampleScenario.node[14].veinsmobility posy ETV
vector 72 RSUExampleScenario.node[14].veinsmobility speed ETV
vector 73 RSUExampleScenario.node[14].veinsmobility acceleration ETV
vector 74 RSUExampleScenario.node[14].veinsmobility co2emission ETV
vector 75 RSUExampleScenario.node[15].veinsmobility posx ETV
vector 76 RSUExampleScenario.node[15].veinsmobility posy ETV
vector 77 RSUExampleScenario.node[15].veinsmobility speed ETV
vector 78 RSUExampleScenario.node[15].veinsmobility acceleration ETV
vector 79 RSUExampleScenario.node[15].veinsmobility co2emission ETV
vector 80 RSUExampleScenario.node[16].veinsmobility posx ETV
vector 81 RSUExampleScenario.node[16].veinsmobility posy ETV
vector 82 RSUExampleScenario.node[16].veinsmobility speed ETV
vector 83 RSUExampleScenario.node[16].veinsmobility acceleration ETV
vector 84 RSUExampleScenario.node[16].veinsmobility co2emission ETV
vector 85 RSUExampleScenario.node[17].veinsmobility posx ETV
vector 86 RSUExampleScenario.node[17].veinsmobility posy ETV
vector 87 RSUExampleScenario.node[17].veinsmobility speed ETV
vector 88 RSUExampleScenario.node[17].veinsmobility acceleration ETV
vector 89 RSUExampleScenario.node[17].veinsmobility co2emission ETV
vector 90 RSUExampleScenario.node[18].veinsmobility posx ETV
vector 91 RSUExampleScenario.node[18].veinsmobility posy ETV
vector 92 RSUExampleScenario.node[18].veinsmobility speed ETV
vector 93 RSUExampleScenario.node[18].veinsmobility acceleration ETV
vector 94 RSUExampleScenario.node[18].veinsmobility co2emission ETV
vector 95 RSUExampleScenario.node[19].veinsmobility posx ETV
vector 96 RSUExampleScenario.node[19].veinsmobility posy ETV
vector 97 RSUExampleScenario.node[19].veinsmobility speed ETV
vector 98 RSUExampleScenario.node[19].veinsmobility acceleration ETV
vector 99 RSUExampleScenario.node[19].veinsmobility co2emission ETV
vector 100 RSUExampleScenario.node[20].veinsmobility posx ETV
vector 101 RSUExampleScenario.node[20].veinsmobility posy ETV
vector 102 RSUExampleScenario.node[20].veinsmobility speed ETV
vector 103 RSUExampleScenario.node[20].veinsmobility acceleration ETV
vector 104 RSUExampleScenario.node[20].veinsmobility co2emission ETV
vector 105 RSUExampleScenario.node[21].veinsmobility posx ETV
vector 106 RSUExampleScenario.node[21].veinsmobility posy ETV
vector 107 RSUExampleScenario.node[21].veinsmobility speed ETV
vector 108 RSUExampleScenario.node[21].veinsmobility acceleration ETV
vector 109 RSUExampleScenario.node[21].veinsmobility co2emission ETV
vector 110 RSUExampleScenario.node[22].veinsmobility posx ETV
vector 111 RSUExampleScenario.node[22].veinsmobility posy ETV
vector 112 RSUExampleScenario.node[22].veinsmobility speed ETV
vector 113 RSUExampleScenario.node[22].veinsmobility acceleration ETV
vector 114 RSUExampleScenario.node[22].veinsmobility co2emission ETV
vector 115 RSUExampleScenario.node[23].veinsmobility posx ETV
vector 116 RSUExampleScenario.node[23].veinsmobility posy ETV
vector 117 RSUExampleScenario.node[23].veinsmobility speed ETV
vector 118 RSUExampleScenario.node[23].veinsmobility acceleration ETV
vector 119 RSUExampleScenario.node[23].veinsmobility co2emission ETV
vector 120 RSUExampleScenario.node[24].veinsmobility posx ETV
vector 121 RSUExampleScenario.node[24].veinsmobility posy ETV
vector 122 RSUExampleScenario.node[24].veinsmobility speed ETV
vector 123 RSUExampleScenario.node[24].veinsmobility acceleration ETV
vector 124 RSUExampleScenario.node[24].veinsmobility co2emission ETV
vector 125 RSUExampleScenario.node[25].veinsmobility posx ETV
vector 126 RSUExampleScenario.node[25].veinsmobility posy ETV
vector 127 RSUExampleScenario.node[25].veinsmobility speed ETV
vector 128 RSUExampleScenario.node[25].veinsmobility acceleration ETV
vector 129 RSUExampleScenario.node[25].veinsmobility co2emission ETV
vector 130 RSUExampleScenario.node[26].veinsmobility posx ETV
vector 131 RSUExampleScenario.node[26].veinsmobility posy ETV
vector 132 RSUExampleScenario.node[26].veinsmobility speed ETV
vector 133 RSUExampleScenario.node[26].veinsmobility acceleration ETV
vector 134 RSUExampleScenario.node[26].veinsmobility co2emission ETV
vector 135 RSUExampleScenario.node[27].veinsmobility posx ETV
vector 136 RSUExampleScenario.node[27].veinsmobility posy ETV
vector 137 RSUExampleScenario.node[27].veinsmobility speed ETV
vector 138 RSUExampleScenario.node[27].veinsmobility acceleration ETV
vector 139 RSUExampleScenario.node[27].veinsmobility co2emission ETV
vector 140 RSUExampleScenario.node[28].veinsmobility posx ETV
vector 141 RSUExampleScenario.node[28].veinsmobility posy ETV
vector 142 RSUExampleScenario.node[28].veinsmobility speed ETV
vector 143 RSUExampleScenario.node[28].veinsmobility acceleration ETV
vector 144 RSUExampleScenario.node[28].veinsmobility co2emission ETV
vector 145 RSUExampleScenario.node[29].veinsmobility posx ETV
vector 146 RSUExampleScenario.node[29].veinsmobility posy ETV
vector 147 RSUExampleScenario.node[29].veinsmobility speed ETV
vector 148 RSUExampleScenario.node[29].veinsmobility acceleration ETV
vector 149 RSUExampleScenario.node[29].veinsmobility co2emission ETV
vector 150 RSUExampleScenario.node[30].veinsmobility posx ETV
vector 151 RSUExampleScenario.node[30].veinsmobility posy ETV
vector 152 RSUExampleScenario.node[30].veinsmobility speed ETV
vector 153 RSUExampleScenario.node[30].veinsmobility acceleration ETV
vector 154 RSUExampleScenario.node[30].veinsmobility co2emission ETV
vector 155 RSUExampleScenario.node[31].veinsmobility posx ETV
vector 156 RSUExampleScenario.node[31].veinsmobility posy ETV
0	2	1	2414.8476884116
0	3	2	2411.8243290941
0	4	3	2407.1592244543
0	5	4	2402.288200066
0	6	5	2396.1394374635
0	7	6	2388.6993875942
0	8	7	2379.889221533
0	9	8	2370.1207192459
0	10	9	2360.3141803208
0	11	10	2350.5099475634
0	12	11	2341.0010868867
0	13	12	2334.5620136983
0	14	13	2337.6803779466
0	15	14	2348.3497968862
0	16	15	2358.6961674725
0	17	16	2371.6616533546
0	18	17	2385.4706804305
0	19	18	2399.3588350668
0	20	19	2412.4541998667
0	21	20	2421.4418196582
0	22	21	2428.417609864
0	23	22	2431.468930052
0	24	23	2433.1513403206
0	25	24	2435.1237040944
0	26	25	2437.2173147583
0	27	26	2438.6437980286
0	28	27	2439.5074353185
0	29	28	2440.517813261
0	30	29	2441.5286354903
0	31	30	2442.5392864447
0	32	31	2443.5505626462
0	33	32	2444.5611125134
0	34	33	2445.5724211388
0	35	34	2446.5834693939
0	36	35	2447.5934051003
0	37	36	2448.6036931522
0	38	37	2449.6148620235
0	39	38	2450.6248001783
0	40	39	2449.5880553933
0	41	40	2448.4757357414
0	42	41	2447.3635385588
0	43	42	2446.250303259
0	44	43	2445.1365203297
0	45	44	2444.0235521834
0	46	45	2442.9111769209
0	47	46	2441.7982721732
0	48	47	2440.6856421625
0	49	48	2439.7151308154
0	50	49	2438.7725309408
0	51	50	2437.9056889905
0	52	51	2432.8785054281
0	53	52	2422.5273191113
0	54	53	2409.439604845
0	55	54	2395.517893619
0	56	55	2381.592286239
0	57	56	2367.6659531716
0	58	57	2353.7601239877
0	59	58	2339.8337569573
0	60	59	2325.9069679289
0	61	60	2311.9542202253
0	62	61	2298.0325140053
0	63	62	2284.0857072632
0	64	63	2270.1754193477
0	65	64	2256.2378749268
0	67	65	2242.3725172955
0	157	66	2228.5568932705
0	158	67	2214.8035730832
0	159	68	2201.6130456962
0	160	69	2188.4247624045
0	161	70	2175.5107078577
0	162	71	2163.5018647154
0	163	72	2152.2359160049
0	164	73	2144.5614629743
0	165	74	2138.2558950796
0	166	75	2131.5955681979
0	167	76	2123.7056670481
0	168	77	2114.4870687368
0	169	78	2104.967243704
0	170	79	2095.4384303803
0	171	80	2085.9056783495
0	172	81	2076.3779145891
0	173	82	2066.8424239405
0	174	83	2057.3019868316
0	175	84	2047.7591241145
0	176	85	2037.7608240946
0	177	86	2027.7716043318
0	178	87	2017.7788433422
0	179	88	2007.7911366803
0	180	89	1997.8010467655
0	181	90	1987.8117551972
0	182	91	1977.8105066026
0	183	92	1967.8078011014
0	184	93	1957.8261436883
0	185	94	1947.8354978411
1	2	1	1578.4613427464
1	3	2	1579.5715045081
1	4	3	1581.5561876604
1	5	4	1586.4898643075
1	6	5	1592.7177137369
1	7	6	1600.2534592729
1	8	7	1609.1769437566
1	9	8	1619.0710908128
1	10	9	1629.0037637418
1	11	10	1638.9341008412
1	12	11	1649.1129276818
1	13	12	1661.0453354148
1	14	13	1673.5713017788
1	15	14	1682.4825292248
1	16	15	1691.8131453674
1	17	16	1695.5671389326
1	18	17	1697.3762977775
1	19	18	1698.7149431584
1	20	19	1699.9531973498
1	21	20	1700.8030368192
1	22	21	1701.4822415169
1	23	22	1709.488976148
1	24	23	1720.5600911779
1	25	24	1733.5392477075
1	26	25	1747.3162704222
1	27	26	1761.1584832035
1	28	27	1775.0702432813
1	29	28	1788.9649324082
1	30	29	1802.8657313576
1	31	30	1816.7641749373
1	32	31	1830.6712168986
1	33	32	1844.5682703312
1	34	33	1858.4757581847
1	35	34	1872.3796654344
1	36	35	1886.2682729438
1	37	36	1900.1617258992
1	38	37	1914.0672918586
1	39	38	1927.95593304
1	40	39	1941.8192613758
1	41	40	1955.7024557721
1	42	41	1969.5841215905
1	43	42	1983.4787444612
1	44	43	1997.3802024601
1	45	44	2011.2714909082
1	46	45	2025.1553793969
1	47	46	2039.0458765477
1	48	47	2052.9329446238
1	49	48	2066.8462265795
1	50	49	2080.7728807703
1	51	50	2094.6498483503
1	52	51	2107.3969092406
1	53	52	2116.410831539
1	54	53	2120.9360540062
1	55	54	2120.5048353085
1	56	55	2120.0344859883
1	57	56	2119.5641121576
1	58	57	2119.0944308629
1	59	58	2118.6240558857
1	60	59	2118.1536666537
1	61	60	2117.6824006466
1	62	61	2117.2121830918
1	63	62	2116.7411177447
1	64	63	2116.2712858524
1	65	64	2115.8005333487
1	67	65	2114.7955725584
1	157	66	2112.8364102887
1	158	67	2110.6440530941
1	159	68	2106.1704403665
1	160	69	2101.6975887315
1	161	70	2096.6391956527
1	162	71	2089.5697793076
1	163	72	2082.9376931852
1	164	73	2078.419863862
1	165	74	2074.2936624894
1	166	75	2067.3736373968
1	167	76	2058.9511591028
1	168	77	2049.1102951029
1	169	78	2038.9478712408
1	170	79	2028.7758523691
1	171	80	2018.5996289225
1	172	81	2008.4287304608
1	173	82	1998.2495835368
1	174	83	1988.0651562605
1	175	84	1977.9077978879
1	176	85	1968.1884612162
1	177	86	1958.4779514531
1	178	87	1948.7639992675
1	179	88	1939.0549603878
1	180	89	1929.3436047509
1	181	90	1919.6330251861
1	182	91	1909.910822208
1	183	92	1900.1872029733
1	184	93	1890.4840445621
1	185	94	1880.7721485039
2	3	2	4.1061966058897
2	4	3	6.0195495591482
2	5	4	7.7148368984793
2	6	5	9.5879868385225
2	7	6	11.391389363371
2	8	7	13.513839789145
2	9	8	13.99235115225
2	10	9	13.890224446259
2	11	10	13.976677174468
2	12	11	13.994826577434
2	13	12	13.923680325528
2	14	13	13.923542996629
2	15	14	13.91007151508
2	16	15	13.964598868005
2	17	16	13.995233640105
2	18	17	13.952304350403
2	19	18	13.956911946491
2	20	19	11.503494614513
2	21	20	7.0034946145128
2	22	21	7.8970062485022
2	23	22	10.10483181514
2	24	23	11.990706169653
2	25	24	13.981089308816
2	26	25	13.965594365916
2	27	26	13.989059597438
2	28	27	13.956378436291
2	29	28	13.910982951869
2	30	29	13.88918493646
2	31	30	13.908189346099
2	32	31	13.983992603337
2	33	32	13.971500478752
2	34	33	13.873081948087
2	35	34	13.985133641064
2	36	35	13.886848415199
2	37	36	13.876205747321
2	38	37	13.967912819823
2	39	38	13.871047234884
2	40	39	13.89239756926
2	41	40	13.872267716837
2	42	41	13.999815066161
2	43	42	13.964707984752
2	44	43	13.906584702837
2	45	44	13.922364303169
2	46	45	13.929034490574
2	47	46	13.93922677479
2	48	47	13.924399639922
2	49	48	13.96850544848
2	50	49	13.986686690277
2	51	50	13.935194088209
2	52	51	13.930097484484
2	53	52	13.948393711536
2	54	53	13.882971800906
2	55	54	13.87138918183
2	56	55	13.933780807857
2	57	56	13.942265776542
2	58	57	13.95140511482
2	59	58	13.886548467774
2	60	59	13.920721456567
2	61	60	13.906796863726
2	62	61	13.917803910668
2	63	62	13.924582225601
2	64	63	13.959688465288
2	65	64	13.957318032989
2	67	65	13.940553226951
2	157	66	13.998651232829
2	158	67	13.999179182528
2	159	68	13.886099785112
2	160	69	13.881868150404
2	161	70	13.887636745651
2	162	71	13.978686858166
2	163	72	11.380505228889
2	164	73	6.8805052288885
2	165	74	8.4946715655791
2	166	75	10.462119500426
2	167	76	12.535577293956
2	168	77	13.991704303646
2	169	78	13.884412832095
2	170	79	13.939308186586
2	171	80	13.975432322551
2	172	81	13.918436620038
2	173	82	13.942294309565
2	174	83	13.978181636031
2	175	84	13.992612206677
2	176	85	13.973604970614
2	177	86	13.905247902325
2	178	87	13.91578970917
2	179	88	13.942760436635
2	180	89	13.903644982614
2	181	90	13.957507387074
2	182	91	13.990155698378
2	183	92	13.951199041368
2	184	93	13.920407453054
2	185	94	13.913764986643
3	4	3	1.9133529532584
3	5	4	1.6952873393311
3	6	5	1.8731499400432
3	7	6	1.8034025248489
3	8	7	2.1224504257739
3	9	8	0.47851136310433
3	10	9	-0.1021267059911
3	11	10	0.086452728209551
3	12	11	0.018149402965792
3	13	12	-0.071146251906175
3	14	13	-0.0001373288989992
3	15	14	-0.013471481548622
3	16	15	0.054527352924923
3	17	16	0.03063477210002
3	18	17	-0.04292928970186
3	19	18	0.0046075960877356
3	20	19	-2.4534173319781
3	21	20	-4.5
3	22	21	0.8935116339894
3	23	22	2.2078255666373
3	24	23	1.8858743545134
3	25	24	1.9903831391631
3	26	25	-0.01549494290026
3	27	26	0.023465231521987
3	28	27	-0.032681161146611
3	29	28	-0.045395484422334
3	30	29	-0.021798015409148
3	31	30	0.019004409639164
3	32	31	0.075803257238585
3	33	32	-0.012492124584968
3	34	33	-0.098418530665803
3	35	34	0.11205169297755
3	36	35	-0.098285225864965
3	37	36	-0.01064266787842
3	38	37	0.091707072502468
3	39	38	-0.096865584938786
3	40	39	0.021350334375166
3	41	40	-0.020129852422979
3	42	41	0.12754734932445
3	43	42	-0.035107081409079
3	44	43	-0.058123281914741
3	45	44	0.015779600332026
3	46	45	0.0066701874043797
3	47	46	0.010192284216172
3	48	47	-0.014827134867664
3	49	48	0.044105808557942
3	50	49	0.018181241797283
3	51	50	-0.051492602068466
3	52	51	-0.0050966037251055
3	53	52	0.018296227052343
3	54	53	-0.065421910630539
3	55	54	-0.011582619075197
3	56	55	0.062391626026946
3	57	56	0.0084849686850799
3	58	57	0.0091393382777465
3	59	58	-0.064856647045817
3	60	59	0.034172988792415
3	61	60	-0.013924592840485
3	62	61	0.011007046941668
3	63	62	0.0067783149331806
3	64	63	0.035106239686721
3	65	64	-0.0023704322986315
3	67	65	-0.016764806038699
3	157	66	0.058098005878273
3	158	67	0.0005279496987356
3	159	68	-0.11307939741528
3	160	69	-0.0042316347081215
3	161	70	0.0057685952470639
3	162	71	0.091050112515221
3	163	72	-2.598181629278
3	164	73	-4.5
3	165	74	1.6141663366905
3	166	75	1.9674479348469
3	167	76	2.0734577935305
3	168	77	1.4561270096891
3	169	78	-0.10729147155071
3	170	79	0.054895354490727
3	171	80	0.036124135965947
3	172	81	-0.056995702513959
3	173	82	0.023857689527794
3	174	83	0.035887326465454
3	175	84	0.014430570646654
3	176	85	-0.01900723606348
3	177	86	-0.068357068288606
3	178	87	0.010541806844994
3	179	88	0.026970727464649
3	180	89	-0.039115454021376
3	181	90	0.053862404460089
3	182	91	0.032648311303928
3	183	92	-0.038956657010131
3	184	93	-0.030791588313878
3	185	94	-0.0066424664109945
4	4	3	4.1962556146115
4	5	4	4.6765885426193
4	6	5	5.9822455727343
4	7	6	6.7469998477461
4	8	7	8.9023657158011
4	9	8	3.651678681686
4	10	9	1.6857621818206
4	11	10	2.3276633668785
4	12	11	2.0995306276608
4	13	12	1.7923040941768
4	14	13	2.0305681317735
4	15	14	1.9844951865828
4	16	15	2.2187318873595
4	17	16	2.1416854339172
4	18	17	1.8896148890835
4	19	18	2.0499339673421
4	20	19	0.973
4	21	20	0.973
4	22	21	3.236958348016
4	23	22	7.0694109561587
4	24	23	7.2974163894139
4	25	24	8.7433911631671
4	26	25	1.9831721788576
4	27	26	2.116835898497
4	28	27	1.9244585801898
4	29	28	1.8775583559564
4	30	29	1.9545657515643
4	31	30	2.0931646705581
4	32	31	2.2926746988581
4	33	32	1.993865292131
4	34	33	1.6968396252803
4	35	34	2.4149847823944
4	36	35	1.6983583398882
4	37	36	1.9906198998388
4	38	37	2.3442713071536
4	39	38	1.7018725964397
4	40	39	2.0993392475273
4	41	40	1.9585122345881
4	42	41	2.4691677522194
4	43	42	1.9170802753567
4	44	43	1.8345014514108
4	45	44	2.0838538984303
4	46	45	2.0539801513469
4	47	46	2.0668686152862
4	48	47	1.9813596940184
4	49	48	2.1840996762636
4	50	49	2.0987681125428
4	51	50	1.8592856847688
4	52	51	2.0145873760113
4	53	52	2.0950692067684
4	54	53	1.8080099866508
4	55	54	1.9870007069688
4	56	55	2.2415869227426
4	57	56	2.0614496349521
4	58	57	2.0646020593826
4	59	58	1.8102089718445
4	60	59	2.1453880261281
4	61	60	1.9826536733129
4	62	61	2.0673636130683
4	63	62	2.0538817544551
4	64	63	2.1528270365066
4	65	64	2.0265038417738
4	67	65	1.9764402783138
4	157	66	2.2347131127692
4	158	67	2.0405446651404
4	159	68	1.6487905152147
4	160	69	2.0126291187762
4	161	70	2.0466796925005
4	162	71	2.3433989621326
4	163	72	0.973
4	164	73	0.973
4	165	74	4.8809554156367
4	166	75	6.6811452761601
4	167	76	8.1607584221603
4	168	77	6.9480584672652
4	169	78	1.6680322027993
4	170	79	2.2170514259717
4	171	80	2.1579993066844
4	172	81	1.8393252185798
4	173	82	2.1131063774542
4	174	83	2.157506963768
4	175	84	2.0867532276998
4	176	85	1.9721338004887
4	177	86	1.8000889448787
4	178	87	2.0655927143501
4	179	88	2.1236171019815
4	180	89	1.8979343131076
4	181	90	2.2156768175481
4	182	91	2.1479163480387
4	183	92	1.9028703189759
4	184	93	1.9274090838955
4	185	94	2.0077586487826
5	5	4	2414.8767583254
5	6	5	2411.8725636174
5	7	6	2407.2970525089
5	8	7	2402.4626210862
5	9	8	2396.3056860371
5	10	9	2388.8743536096
5	11	10	2380.097228827
5	12	11	2370.3507264333
5	13	12	2360.5878487076
5	14	13	2350.7849318213
5	15	14	2341.2418729237
5	16	15	2334.6305580324
5	17	16	2337.3467480277
5	18	17	2348.0519014368
5	19	18	2358.3998493504
5	20	19	2371.2788021446
5	21	20	2385.0887639745
5	22	21	2398.4985461925
5	23	22	2411.2485283293
5	24	23	2420.6905829484
5	25	24	2427.6440450998
5	26	25	2431.3031180431
5	27	26	2432.9057471878
5	28	27	2434.8184996871
5	29	28	2436.9106889558
5	30	29	2438.5031214217
5	31	30	2439.359314087
5	32	31	2440.3695716034
5	33	32	2441.3815056744
5	34	33	2442.392207776
5	35	34	2443.4019859718
5	36	35	2444.4122552489
5	37	36	2445.4251439738
5	38	37	2446.4367595227
5	39	38	2447.4467230743
5	40	39	2448.4574488286
5	41	40	2449.467800329
5	42	41	2450.4780716181
5	43	42	2449.7461704329
5	44	43	2448.6331060936
5	45	44	2447.5209445587
5	46	45	2446.407523851
5	47	46	2445.2946584851
5	48	47	2444.1824360332
5	49	48	2443.0706190476
5	50	49	2441.9568028547
5	51	50	2440.8451110823
5	52	51	2439.8503503047
5	53	52	2438.9091742415
5	54	53	2438.2310626655
5	55	54	2433.9050446447
5	56	55	2424.21615465
5	57	56	2411.3460908785
5	58	57	2397.4706148925
5	59	58	2383.5587488873
5	60	59	2369.633660475
5	61	60	2355.7048479554
5	62	61	2341.7904321874
5	63	62	2327.8638711022
5	64	63	2313.9188814831
5	65	64	2299.9979078089
5	67	65	2286.0826278217
5	157	66	2272.1551827891
5	158	67	2258.2333055256
5	159	68	2244.3319301521
5	160	69	2230.5388995206
5	161	70	2216.7493601282
5	162	71	2203.5089906314
5	163	72	2190.3028214657
5	164	73	2177.2175397498
5	165	74	2165.2424954871
5	166	75	2153.7742474813
5	167	76	2145.5067126864
5	168	77	2139.5021617314
5	169	78	2133.1382634535
5	170	79	2125.5907683726
5	171	80	2116.6856371113
5	172	81	2107.1659774036
5	173	82	2097.6471887421
5	174	83	2088.1193509075
5	175	84	2078.5897193553
5	176	85	2069.0611372048
5	177	86	2059.5358263678
5	178	87	2050.0131364827
5	179	88	2040.1145859665
5	180	89	2030.1137191838
5	181	90	2020.1430603783
5	182	91	2010.1475011546
5	183	92	2000.1671663148
5	184	93	1990.1688805242
5	185	94	1980.1967867191
6	5	4	1578.4506684253
6	6	5	1579.5537930429
6	7	6	1581.4165868293
6	8	7	1586.3131998433
6	9	8	1592.5493268352
6	10	9	1600.0762428036
6	11	10	1608.9662610246
6	12	11	1618.8381252186
6	13	12	1628.7265753681
6	14	13	1638.6555796713
6	15	14	1648.8046840783
6	16	15	1660.6325348346
6	17	16	1673.301875555
6	18	17	1682.2138796467
6	19	18	1691.5459182626
6	20	19	1695.5099147679
6	21	20	1697.3308411958
6	22	21	1698.6335971011
6	23	22	1699.8391930545
6	24	23	1700.7320023719
6	25	24	1701.2941834759
6	26	25	1708.3978488175
6	27	26	1718.9439634858
6	28	27	1731.5308475178
6	29	28	1745.2985167308
6	30	29	1759.1189484736
6	31	30	1773.033284259
6	32	31	1786.9263172904
6	33	32	1800.8424062571
6	34	33	1814.7415532097
6	35	34	1828.6279946407
6	36	35	1842.5211894047
6	37	36	1856.4504067414
6	38	37	1870.362115399
6	39	38	1884.2511058366
6	40	39	1898.150578063
6	41	40	1912.0449035605
6	42	41	1925.9381259941
6	43	42	1939.8457802581
6	44	43	1953.7382693188
6	45	44	1967.6194902081
6	46	45	1981.5164272105
6	47	46	1995.4064328251
6	48	47	2009.2884140396
6	49	48	2023.165334505
6	50	49	2037.0672076773
6	51	50	2050.942565321
6	52	51	2064.8483957723
6	53	52	2078.754013543
6	54	53	2092.6537938379
6	55	54	2105.6893007364
6	56	55	2115.3934075218
6	57	56	2120.5034639826
6	58	57	2120.5707901428
6	59	58	2120.100904949
6	60	59	2119.6305731572
6	61	60	2119.160115581
6	62	61	2118.6901442679
6	63	62	2118.2197627351
6	64	63	2117.748758764
6	65	64	2117.2785659507
6	67	65	2116.8085654471
6	157	66	2116.3381540589
6	158	67	2115.8679307271
6	159	68	2115.0734324455
6	160	69	2113.117474094
6	161	70	2111.1620108271
6	162	71	2106.8134566117
6	163	72	2102.3345389208
6	164	73	2097.6439806372
6	165	74	2090.5944611588
6	166	75	2083.8432846358
6	167	76	2078.976317442
6	168	77	2075.2888157107
6	169	78	2069.0204663062
6	170	79	2060.9635068728
6	171	80	2051.4572692998
6	172	81	2041.2950219223
6	173	82	2031.1337043885
6	174	83	2020.9627268519
6	175	84	2010.7898345208
6	176	85	2000.6180624254
6	177	86	1990.4497824619
6	178	87	1980.2843003673
6	179	88	1970.4765505949
6	180	89	1960.7547187759
6	181	90	1951.0622520996
6	182	91	1941.3455797536
6	183	92	1931.6437070146
6	184	93	1921.9243841758
6	185	94	1912.2305225376
7	6	5	4.0332649588119
7	7	6	5.8265110515686
7	8	7	7.7852127750962
7	9	8	9.5658873894228
7	10	9	11.450149483434
7	11	10	13.391487500134
7	12	11	13.949883621705
7	13	12	13.87602620427
7	14	13	13.885232782268
7	15	14	13.987373048679
7	16	15	13.890608048609
7	17	16	13.887004709987
7	18	17	13.926980708602
7	19	18	13.89086526999
7	20	19	13.965056618985
7	21	20	13.946692067499
7	22	21	13.097137451398
7	23	22	11.939132677032
7	24	23	7.4783001788439
7	25	24	7.8592269216425
7	26	25	9.5749213322898
7	27	26	11.610942506126
7	28	27	13.581243869506
7	29	28	13.973211987913
7	30	29	13.918392209036
7	31	30	13.928662607018
7	32	31	13.985277111761
7	33	32	13.95532245066
7	34	33	13.938708755139
7	35	34	13.908545650935
7	36	35	13.927478809105
7	37	36	13.897819017794
7	38	37	13.989504252097
7	39	38	13.94374062394
7	40	39	13.903882643976
7	41	40	13.969130632835
7	42	41	13.884234787642
7	43	42	13.881978327318
7	44	43	13.927070145076
7	45	44	13.922745489741
7	46	45	13.95273740395
7	47	46	13.968270483359
7	48	47	13.918685564972
7	49	48	13.921468284922
7	50	49	13.897015957548
7	51	50	13.964752228069
7	52	51	13.91147568828
7	53	52	13.974545761354
7	54	53	13.965476403411
7	55	54	13.989670229855
7	56	55	13.951804798429
7	57	56	13.892850009208
7	58	57	13.958218119799
7	59	58	13.933717581006
7	60	59	13.982012811573
7	61	60	13.954506225567
7	62	61	13.954468280503
7	63	62	13.914126337939
7	64	63	13.998578815588
7	65	64	13.932968401979
7	67	65	13.954534002345
7	157	66	13.957377178506
7	158	67	13.932528918332
7	159	68	13.977439161665
7	160	69	13.873707558191
7	161	70	13.945779315263
7	162	71	13.942668949808
7	163	72	13.91575948562
7	164	73	13.907857767178
7	165	74	13.74288410399
7	166	75	12.057991498623
7	167	76	7.5687227125094
7	168	77	7.8527784139012
7	169	78	9.8502493766883
7	170	79	11.94908444162
7	171	80	13.947927183691
7	172	81	13.884608772129
7	173	82	13.932486002932
7	174	83	13.933768573357
7	175	84	13.982790281298
7	176	85	13.883384850675
7	177	86	13.990208008899
7	178	87	13.960943002203
7	179	88	13.999323605334
7	180	89	13.898829272678
7	181	90	13.923322260124
7	182	91	13.97501944537
7	183	92	13.884102251558
7	184	93	13.933503699079
7	185	94	13.929935510485
8	7	6	1.7932460927567
8	8	7	1.9587017235276
8	9	8	1.7806746143266
8	10	9	1.8842620940111
8	11	10	1.9413380167005
8	12	11	0.5583961215709
8	13	12	-0.073857417434921
8	14	13	0.0092065779981212
8	15	14	0.10214026641101
8	16	15	-0.096765000070445
8	17	16	-0.0036033386224883
8	18	17	0.039975998615846
8	19	18	-0.036115438612178
8	20	19	0.074191348995083
8	21	20	-0.018364551486448
8	22	21	-0.84955461610103
8	23	22	-1.1580047743662
8	24	23	-4.4608324981877
8	25	24	0.38092674279862
8	26	25	1.7156944106473
8	27	26	2.0360211738362
8	28	27	1.9703013633797
8	29	28	0.39196811840698
8	30	29	-0.054819778876846
8	31	30	0.010270397982096
8	32	31	0.056614504742901
8	33	32	-0.029954661100637
8	34	33	-0.016613695521373
8	35	34	-0.030163104203529
8	36	35	0.018933158169965
8	37	36	-0.029659791311714
8	38	37	0.091685234303586
8	39	38	-0.045763628156855
8	40	39	-0.039857979963999
8	41	40	0.065247988859191
8	42	41	-0.08489584519295
8	43	42	-0.0022564603248618
8	44	43	0.045091817758511
8	45	44	-0.0043246553349299
8	46	45	0.029991914208512
8	47	46	0.015533079409506
8	48	47	-0.0495849183877
8	49	48	0.0027827199501917
8	50	49	-0.024452327373437
8	51	50	0.067736270520836
8	52	51	-0.053276539789513
8	53	52	0.063070073074195
8	54	53	-0.0090693579427903
8	55	54	0.024193826443517
8	56	55	-0.037865431425162
8	57	56	-0.058954789221753
8	58	57	0.065368110591081
8	59	58	-0.024500538792926
8	60	59	0.048295230567454
8	61	60	-0.027506586005911
8	62	61	-3.7945064249811e-05
8	63	62	-0.040341942564119
8	64	63	0.08445247764932
8	65	64	-0.065610413609539
8	67	65	0.021565600365866
8	157	66	0.0028431761614058
8	158	67	-0.024848260174041
8	159	68	0.044910243332852
8	160	69	-0.10373160347343
8	161	70	0.072071757072118
8	162	71	-0.0031103654555054
8	163	72	-0.02690946418792
8	164	73	-0.0079017184418628
8	165	74	-0.16497366318824
8	166	75	-1.6848926053673
8	167	76	-4.4892687861132
8	168	77	0.28405570139177
8	169	78	1.997470962787
8	170	79	2.0988350649318
8	171	80	1.9988427420706
8	172	81	-0.063318411561289
8	173	82	0.04787723080255
8	174	83	0.0012825704249551
8	175	84	0.049021707940847
8	176	85	-0.099405430622864
8	177	86	0.10682315822458
8	178	87	-0.029265006696805
8	179	88	0.038380603131372
8	180	89	-0.1004943326558
8	181	90	0.024492987445557
8	182	91	0.05169718524674
8	183	92	-0.090917193812784
8	184	93	0.049401447521522
8	185	94	-0.0035681885946541
9	7	6	3.9274001426868
9	8	7	5.2041356246368
9	9	8	5.7574507674447
9	10	9	7.0006276784153
9	11	10	8.2432295261252
9	12	11	3.9110016848773
9	13	12	1.7792042638201
9	14	13	2.0579365757541
9	15	14	2.3818636967155
9	16	15	1.7037407999188
9	17	16	2.0152488537881
9	18	17	2.1655550639215
9	19	18	1.906797412239
9	20	19	2.2849654495652
9	21	20	1.9716653983805
9	22	21	0.973
9	23	22	0.973
9	24	23	0.973
9	25	24	2.2554772362628
9	26	25	5.6120472675651
9	27	26	7.5119842129131
9	28	27	8.4455276517466
9	29	28	3.3560730035355
9	30	29	1.8466200733259
9	31	30	2.0660268329645
9	32	31	2.2281549844786
9	33	32	1.9335288120447
9	34	33	1.9767670407741
9	35	34	1.9283950769156
9	36	35	2.0949799016024
9	37	36	1.9290667558988
9	38	37	2.3468857079218
9	39	38	1.8793040227889
9	40	39	1.8954681876561
9	41	40	2.2553467174174
9	42	41	1.7429567241042
9	43	42	2.0192482635441
9	44	43	2.1827359052182
9	45	44	2.0164367628106
9	46	45	2.1348602115454
9	47	46	2.0878872407227
9	48	47	1.8642059318509
9	49	48	2.0401536442479
9	50	49	1.9464315106901
9	51	50	2.2632042711189
9	52	51	1.851180617826
9	53	52	2.2486511283506
9	54	53	2.0047870143605
9	55	54	2.1193583924862
9	56	55	1.9065956504161
9	57	56	1.8305118457369
9	58	57	2.2544630998412
9	59	58	1.9497933768092
9	60	59	2.199742909699
9	61	60	1.9416842431598
9	62	61	2.0340583936544
9	63	62	1.8947902862501
9	64	63	2.3236156337703
9	65	64	1.8116807487081
9	67	65	2.1067187558746
9	157	66	2.0440470145686
9	158	67	1.9485115452067
9	159	68	2.1878187851485
9	160	69	1.6791237400594
9	161	70	2.2755265645048
9	162	71	2.0225291815531
9	163	72	1.9399893034582
9	164	73	2.0029455902709
9	165	74	1.4663345211208
9	166	75	0.973
9	167	76	0.973
9	168	77	2.0711335261948
9	169	78	6.4152831024102
9	170	79	7.8881081638602
9	171	80	8.7525284671264
9	172	81	1.815189301835
9	173	82	2.1926999225795
9	174	83	2.0363789456198
9	175	84	2.2022797105907
9	176	85	1.6943401481553
9	177	86	2.3980130110749
9	178	87	1.9363832529257
9	179	88	2.1682681767827
9	180	89	1.6918937064968
9	181	90	2.1131931668759
9	182	91	2.2104031609639
9	183	92	1.7227981158715
9	184	93	2.1979337916806
9	185	94	2.0197021153789
10	8	7	2414.8848622198
10	9	8	2412.0691307599
10	10	9	2407.3819784434
10	11	10	2402.4639103656
10	12	11	2396.2016479742
10	13	12	2388.5021761758
10	14	13	2379.5347220144
10	15	14	2369.7521497252
10	16	15	2359.9648396304
10	17	16	2350.1637192596
10	18	17	2340.717056727
10	19	18	2334.4889366638
10	20	19	2338.0188398167
10	21	20	2348.6970945761
10	22	21	2359.0578910074
10	23	22	2372.1753142256
10	24	23	2385.9847009928
10	25	24	2399.0560799135
10	26	25	2411.469456295
10	27	26	2420.8240344936
10	28	27	2428.2511095385
10	29	28	2431.5096723901
10	30	29	2433.2168502312
10	31	30	2435.2011956087
10	32	31	2437.29147981
10	33	32	2438.672857787
10	34	33	2439.5458305131
10	35	34	2440.5569901068
10	36	35	2441.5662171456
10	37	36	2442.5764760413
10	38	37	2443.5864360537
10	39	38	2444.5969193554
10	40	39	2445.6077267987
10	41	40	2446.6171177449
10	42	41	2447.6285385494
10	43	42	2448.6389437378
10	44	43	2449.6489775468
10	45	44	2450.659299592
10	46	45	2449.5461587089
10	47	46	2448.4337074455
10	48	47	2447.3207898499
10	49	48	2446.207873206
10	50	49	2445.0940501215
10	51	50	2443.9833638043
10	52	51	2442.8694501355
10	53	52	2441.7571938549
10	54	53	2440.6460889142
10	55	54	2439.6824932018
10	56	55	2438.741084579
10	57	56	2437.8178922307
10	58	57	2432.628875918
10	59	58	2422.099758557
10	60	59	2408.9617932498
10	61	60	2395.0275024913
10	62	61	2381.1194986589
10	63	62	2367.2108877165
10	64	63	2353.2913366285
10	65	64	2339.3363710896
10	67	65	2325.3913249692
10	157	66	2311.4476897647
10	158	67	2297.4983647275
10	159	68	2283.5801531249
10	160	69	2269.6389171832
10	161	70	2255.7127677456
10	162	71	2241.8359768615
10	163	72	2228.0496562888
10	164	73	2214.3204117303
10	165	74	2201.1356404887
10	166	75	2187.9527212165
10	167	76	2175.0638567568
10	168	77	2163.8270147669
10	169	78	2153.0802669595
10	170	79	2145.0715277719
10	171	80	2138.8791204049
10	172	81	2132.1538470712
10	173	82	2124.1794652122
10	174	83	2114.9682953636
10	175	84	2105.4503674875
10	176	85	2095.9174355941
10	177	86	2086.3855086367
10	178	87	2076.854366392
10	179	88	2067.3279705069
10	180	89	2057.7989259652
10	181	90	2048.2657166205
10	182	91	2038.283265963
10	183	92	2028.2931978384
10	184	93	2018.3027401837
10	185	94	2008.3179219114
11	8	7	1578.4476927174
11	9	8	1579.4816146148
11	10	9	1581.3305685576
11	11	10	1586.311893981
11	12	11	1592.6547030602
11	13	12	1600.4532072712
11	14	13	1609.5360029312
11	15	14	1619.4444009606
11	16	15	1629.3575977338
11	17	16	1639.2847824143
11	18	17	1649.4765304932
11	19	18	1661.4854336744
11	20	19	1673.8446300924
11	21	20	1682.7957309801
11	22	21	1692.1393567109
11	23	22	1695.6439150097
11	24	23	1697.4374776948
11	25	24	1698.6863156371
11	26	25	1699.860083269
11	27	26	1700.7446211064
11	28	27	1701.4003788568
11	29	28	1709.757081449
11	30	29	1720.9911797
11	31	30	1734.0491812732
11	32	31	1747.8043141738
11	33	32	1761.6824669717
11	34	33	1775.5982529195
11	35	34	1789.5036912933
11	36	35	1803.3825532272
11	37	36	1817.2756052278
11	38	37	1831.1645469936
11	39	38	1845.0606850199
11	40	39	1858.9612806309
11	41	40	1872.8423966132
11	42	41	1886.7514271513
11	43	42	1900.646490965
11	44	43	1914.536447579
11	45	44	1928.4487420022
11	46	45	1942.3421864314
11	47	46	1956.2270235084
11	48	47	1970.117681019
11	49	48	1984.0083266487
11	50	49	1997.9102858361
11	51	50	2011.7730940934
11	52	51	2025.6761838896
11	53	52	2039.5585873295
11	54	53	2053.4266205495
11	55	54	2067.3284383547
11	56	55	2081.2374921273
11	57	56	2095.1151711773
11	58	57	2107.8121583294
11	59	58	2116.6019557538
11	60	59	2120.9589145361
11	61	60	2120.4882719275
11	62	61	2120.0185171831
11	63	62	2119.548741932
11	64	63	2119.0785971684
11	65	64	2118.6072562514
11	67	65	2118.1362503711
11	157	66	2117.6652921457
11	158	67	2117.1941417418
11	159	68	2116.724042221
11	160	69	2116.2531650327
11	161	70	2115.7827974036
11	162	71	2114.7194869779
11	163	72	2112.7644801643
11	164	73	2110.4801872596
11	165	74	2106.008526748
11	166	75	2101.537494339
11	167	76	2096.3761414643
11	168	77	2089.7611900093
11	169	78	2083.4347492605
11	170	79	2078.7201309539
11	171	80	2074.7913125623
11	172	81	2067.9696007185
11	173	82	2059.456939172
11	174	83	2049.6240050644
11	175	84	2039.46360642
11	176	85	2029.28719097
11	177	86	2019.1118482901
11	178	87	2008.9373432929
11	179	88	1998.7679050388
11	180	89	1988.5956393415
11	181	90	1978.4189277124
11	182	91	1968.6963263936
11	183	92	1958.9849919388
11	184	93	1949.2732788222
11	185	94	1939.5670477431
12	9	8	3.930963162637
12	10	9	5.9263112237273
12	11	10	7.8381960794392
12	12	11	9.790430662247
12	13	12	11.728100012452
12	14	13	13.629514704516
12	15	14	13.941568216505
12	16	15	13.881279769889
12	17	16	13.897868440901
12	18	17	13.925429278756
12	19	18	13.988464023101
12	20	19	13.968606978769
12	21	20	13.918509052745
12	22	21	13.924308654484
12	23	22	13.951645852409
12	24	23	13.87926841794
12	25	24	12.793519969494
12	26	25	11.84351296104
12	27	26	7.4038563960913
12	28	27	8.4727548549238
12	29	28	10.367830629347
12	30	29	12.18869854925
12	31	30	13.961659159465
12	32	31	13.954832898835
12	33	32	13.985199820679
12	34	33	13.894128147855
12	35	34	13.93747920732
12	36	35	13.922516686122
12	37	36	13.936551663636
12	38	37	13.899921349036
12	39	38	13.905686459227
12	40	39	13.974518650502
12	41	40	13.926188751743
12	42	41	13.91506882193
12	43	42	13.902084701743
12	44	43	13.906688486487
12	45	44	13.974945872892
12	46	45	13.897515056985
12	47	46	13.921723058985
12	48	47	13.971591069859
12	49	48	13.925448836959
12	50	49	13.871581884674
12	51	50	13.876423048137
12	52	51	13.873938687814
12	53	52	13.902598275633
12	54	53	13.87539361449
12	55	54	13.972987024514
12	56	55	13.957628285089
12	57	56	13.950985880545
12	58	57	13.943263569523
12	59	58	13.891897078918
12	60	59	13.874182712052
12	61	60	13.982985400616
12	62	61	13.927164004399
12	63	62	13.899862960158
12	64	63	13.960168966714
12	65	64	13.961850514959
12	67	65	13.962242161995
12	157	66	13.925234322341
12	158	67	13.991972472956
12	159	68	13.975208927125
12	160	69	13.946616810667
12	161	70	13.894927249895
12	162	71	13.997537077854
12	163	72	13.937148143742
12	164	73	13.949254455173
12	165	74	13.872561737457
12	166	75	13.941436031195
12	167	76	13.877849130908
12	168	77	12.619268954948
12	169	78	11.767659231051
12	170	79	7.2714327337119
12	171	80	8.4181567059542
12	172	81	10.470719517201
12	173	82	12.55852173912
12	174	83	13.888510530582
12	175	84	13.878650632019
12	176	85	13.945760953585
12	177	86	13.92992599302
12	178	87	13.882018232113
12	179	88	13.939167882889
12	180	89	13.977764886424
12	181	90	13.894534370045
12	182	91	13.966682291413
12	183	92	13.930039903398
12	184	93	13.975413697299
12	185	94	13.895980606813
13	10	9	1.9953480610903
13	11	10	1.9118848557118
13	12	11	1.9522345828079
13	13	12	1.9376693502045
13	14	13	1.9014146920643
13	15	14	0.31205351198868
13	16	15	-0.060288446615449
13	17	16	0.016588671011849
13	18	17	0.027560837855562
13	19	18	0.063034744344186
13	20	19	-0.019857044331729
13	21	20	-0.050097926023881
13	22	21	0.0057996017392714
13	23	22	0.027337197924499
13	24	23	-0.072377434468363
13	25	24	-1.0857484484466
13	26	25	-0.95000700845353
13	27	26	-4.439656564949
13	28	27	1.0688984588324
13	29	28	1.8950757744233
13	30	29	1.8208679199032
13	31	30	1.7729606102145
13	32	31	-0.0068262606300422
13	33	32	0.03036692184396
13	34	33	-0.091071672823745
13	35	34	0.043351059465204
13	36	35	-0.01496252119774
13	37	36	0.014034977513365
13	38	37	-0.036630314600188
13	39	38	0.0057651101914225
13	40	39	0.068832191275433
13	41	40	-0.048329898759256
13	42	41	-0.01111992981285
13	43	42	-0.012984120186884
13	44	43	0.0046037847432316
13	45	44	0.068257386405021
13	46	45	-0.077430815906265
13	47	46	0.02420800199965
13	48	47	0.049868010873906
13	49	48	-0.046142232900019
13	50	49	-0.053866952285171
13	51	50	0.0048411634634249
13	52	51	-0.0024843603232867
13	53	52	0.028659587819128
13	54	53	-0.027204661143477
13	55	54	0.09759341002442
13	56	55	-0.015358739425428
13	57	56	-0.0066424045432356
13	58	57	-0.007722311022226
13	59	58	-0.051366490605288
13	60	59	-0.017714366866276
13	61	60	0.10880268856417
13	62	61	-0.055821396217215
13	63	62	-0.027301044240593
13	64	63	0.06030600655591
13	65	64	0.0016815482452515
13	67	65	0.00039164703572148
13	157	66	-0.037007839654107
13	158	67	0.066738150615711
13	159	68	-0.0167635458312
13	160	69	-0.028592116457874
13	161	70	-0.051689560771921
13	162	71	0.10260982795851
13	163	72	-0.060388934111689
13	164	73	0.01210631143069
13	165	74	-0.076692717715632
13	166	75	0.068874293738045
13	167	76	-0.063586900287774
13	168	77	-1.2585801759596
13	169	78	-0.85160972389679
13	170	79	-4.4962264973393
13	171	80	1.1467239722423
13	172	81	2.0525628112466
13	173	82	2.0878022219194
13	174	83	1.3299887914615
13	175	84	-0.0098598985630094
13	176	85	0.067110321565998
13	177	86	-0.015834960564971
13	178	87	-0.047907760906964
13	179	88	0.057149650775827
13	180	89	0.038597003535834
13	181	90	-0.0832305163797
13	182	91	0.072147921368014
13	183	92	-0.036642388014588
13	184	93	0.045373793900945
13	185	94	-0.079433090486564
14	10	9	4.2649508166984
14	11	10	5.1441608835298
14	12	11	6.2752675611406
14	13	12	7.3015557220543
14	14	13	8.2469806235914
14	15	14	3.0813423760871
14	16	15	1.825038103975
14	17	16	2.0839753981971
14	18	17	2.1237162576214
14	19	18	2.2501690272635
14	20	19	1.9687844028223
14	21	20	1.8624692368163
14	22	21	2.0505690853877
14	23	22	2.1258147014109
14	24	23	1.7844264067381
14	25	24	0.973
14	26	25	0.973
14	27	26	0.973
14	28	27	3.7575341079103
14	29	28	6.4482222684255
14	30	29	7.2140195323343
14	31	30	8.0005078452345
14	32	31	2.0112657729674
14	33	32	2.1396802881933
14	34	33	1.7230808185304
14	35	34	2.1780640158967
14	36	35	1.980720158986
14	37	36	2.0794954629949
14	38	37	1.9059152732614
14	39	38	2.0485298427513
14	40	39	2.2680539427787
14	41	40	1.8690933945628
14	42	41	1.9928741031296
14	43	42	1.9853406570184
14	44	43	2.0447410785649
14	45	44	2.2661688405632
14	46	45	1.7690384486571
14	47	46	2.1120645090544
14	48	47	2.2038504354464
14	49	48	1.8763684319447
14	50	49	1.8456610488087
14	51	50	2.0424227277346
14	52	51	2.0176736696174
14	53	52	2.1249196677245
14	54	53	1.9351566644326
14	55	54	2.3647248781457
14	56	55	1.9828454643184
14	57	56	2.0114971183472
14	58	57	2.007091813677
14	59	58	1.8558336695686
14	60	59	1.9667740746073
14	61	60	2.4037578966905
14	62	61	1.844036691971
14	63	62	1.9371616602798
14	64	63	2.2376623461065
14	65	64	2.0405988072341
14	67	65	2.0362986285583
14	157	66	1.9070037954822
14	158	67	2.2630700095878
14	159	68	1.9798474403324
14	160	69	1.9372818212763
14	161	70	1.8550225742329
14	162	71	2.3847397299678
14	163	72	1.8295794064806
14	164	73	2.0743518631084
14	165	74	1.7694347592009
14	166	75	2.2642644670172
14	167	76	1.8137074180615
14	168	77	0.973
14	169	78	0.973
14	170	79	0.973
14	171	80	3.8976468345674
14	172	81	6.9006815444997
14	173	82	8.2177466262902
14	174	83	6.4791082854315
14	175	84	1.9934802295803
14	176	85	2.2588493406892
14	177	86	1.9785202232272
14	178	87	1.866522840978
14	179	88	2.2246081928829
14	180	89	2.1665886194004
14	181	90	1.7493699939429
14	182	91	2.2782826967557
14	183	92	1.908677970281
14	184	93	2.1891507767845
14	185	94	1.7622054562569
15	11	10	2414.8652957816
15	12	11	2411.9402292009
15	13	12	2407.1594214574
15	14	13	2402.0350675649
15	15	14	2395.5354035812
15	16	15	2387.5598131203
15	17	16	2378.2983909701
15	18	17	2368.4972038758
15	19	18	2358.719633554
15	20	19	2348.9248444787
15	21	20	2339.614370346
15	22	21	2334.1997176057
15	23	22	2339.4193692133
15	24	23	2350.023330241
15	25	24	2360.3662725991
15	26	25	2373.90233667
15	27	26	2387.7152259793
15	28	27	2400.5914429313
15	29	28	2412.9398871803
15	30	29	2421.7139854309
15	31	30	2429.0882121673
15	32	31	2431.6639768599
15	33	32	2433.4302155024
15	34	33	2435.4611475593
15	35	34	2437.5533698815
15	36	35	2438.7684759141
15	37	36	2439.671540139
15	38	37	2440.6813741141
15	39	38	2441.6917844916
15	40	39	2442.7022041357
15	41	40	2443.7124593587
15	42	41	2444.7229332504
15	43	42	2445.7337078364
15	44	43	2446.7459111849
15	45	44	2447.757486716
15	46	45	2448.7683903823
15	47	46	2449.7777371067
15	48	47	2450.5176811377
15	49	48	2449.4057673637
15	50	49	2448.2921364765
15	51	50	2447.1808208324
15	52	51	2446.0691226661
15	53	52	2444.9566500478
15	54	53	2443.8447802094
15	55	54	2442.731477023
15	56	55	2441.6197022425
15	57	56	2440.5080080784
15	58	57	2439.5670555097
15	59	58	2438.6556009268
15	60	59	2437.5062560235
15	61	60	2431.5722499692
15	62	61	2420.527699944
15	63	62	2407.2382113171
15	64	63	2393.3269784888
15	65	64	2379.3955530388
15	67	65	2365.4745847809
15	157	66	2351.529199079
15	158	67	2337.6079130118
15	159	68	2323.6725767179
15	160	69	2309.7385225614
15	161	70	2295.8080973643
15	162	71	2281.8952010303
15	163	72	2267.9654732505
15	164	73	2254.0466482575
15	165	74	2240.2066991659
15	166	75	2226.4173803013
15	167	76	2212.7662110776
15	168	77	2199.5729332234
15	169	78	2186.3872113026
15	170	79	2173.6474240444
15	171	80	2162.5677132215
15	172	81	2151.8935926168
15	173	82	2144.3555114834
15	174	83	2138.2247302437
15	175	84	2131.6834204124
15	176	85	2123.8660908783
15	177	86	2114.7614731657
15	178	87	2105.2411713355
15	179	88	2095.7108763196
15	180	89	2086.1925951599
15	181	90	2076.6852548176
15	182	91	2067.1594253494
15	183	92	2057.632607371
15	184	93	2048.1022976771
15	185	94	2038.1078835877
16	11	10	1578.4548774119
16	12	11	1579.5289465943
16	13	12	1581.5559881236
16	14	13	1586.7462526578
16	15	14	1593.3295168448
16	16	15	1601.4076912217
16	17	16	1610.7882359559
16	18	17	1620.7154882178
16	19	18	1630.6188199436
16	20	19	1640.5395918936
16	21	20	1650.8881406859
16	22	21	1663.2272230769
16	23	22	1674.9756418047
16	24	23	1683.991763521
16	25	24	1693.3192880014
16	26	25	1695.9020503219
16	27	26	1697.6139621651
16	28	27	1698.8314944636
16	29	28	1699.9991223291
16	30	29	1700.8287719106
16	31	30	1701.8119543158
16	32	31	1710.77248332
16	33	32	1722.3952316754
16	34	33	1735.7597972872
16	35	34	1749.5276840087
16	36	35	1763.4065813264
16	37	36	1777.3270081691
16	38	37	1791.2142166747
16	39	38	1805.1093518483
16	40	39	1819.0046144547
16	41	40	1832.8976159496
16	42	41	1846.7936245678
16	43	42	1860.6937683271
16	44	43	1874.6135603888
16	45	44	1888.5247187214
16	46	45	1902.4266375881
16	47	46	1916.3071454344
16	48	47	1930.2163243052
16	49	48	1944.0944528161
16	50	49	1957.9940131316
16	51	50	1971.8646762054
16	52	51	1985.7401136523
16	53	52	1999.6252172682
16	54	53	2013.5027974071
16	55	54	2027.3982675895
16	56	55	2041.2746612821
16	57	56	2055.1500487765
16	58	57	2069.0339985425
16	59	58	2082.9232102502
16	60	59	2096.7668430749
16	61	60	2109.1502521159
16	62	61	2117.3046830418
16	63	62	2120.90069908
16	64	63	2120.4308352731
16	65	64	2119.9602894429
16	67	65	2119.4900968131
16	157	66	2119.0190794626
16	158	67	2118.5488760993
16	159	68	2118.0781981768
16	160	69	2117.6075635599
16	161	70	2117.1370515134
16	162	71	2116.6671315199
16	163	72	2116.1966430303
16	164	73	2115.7265227912
16	165	74	2114.4884428075
16	166	75	2112.5330108125
16	167	76	2109.9530747626
16	168	77	2105.4785292046
16	169	78	2101.0065462673
16	170	79	2095.5423098914
16	171	80	2089.0198590728
16	172	81	2082.7361728121
16	173	82	2078.2986234706
16	174	83	2074.2687771348
16	175	84	2067.4674197342
16	176	85	2059.1224117205
16	177	86	2049.4032221371
16	178	87	2039.2402892942
16	179	88	2029.0666887136
16	180	89	2018.9059129385
16	181	90	2008.756816498
16	182	91	1998.5879828949
16	183	92	1988.4180940567
16	184	93	1978.2444778075
16	185	94	1968.5258373758
17	12	11	4.0076977833542
17	13	12	6.1677344774264
17	14	13	8.1549676716625
17	15	14	10.178332106699
17	16	15	12.262859039094
17	17	16	13.909239285488
17	18	17	13.972104677679
17	19	18	13.964405047395
17	20	19	13.904001857305
17	21	20	13.959390929798
17	22	21	13.878038117993
17	23	22	13.946876353603
17	24	23	13.944667257406
17	25	24	13.919344021892
17	26	25	13.927560248445
17	27	26	13.871213583788
17	28	27	12.691334807668
17	29	28	11.253789109264
17	30	29	6.8021452137647
17	31	30	8.5806848426844
17	32	31	10.511503565412
17	33	32	12.634297992723
17	34	33	13.965718502484
17	35	34	13.984844662666
17	36	35	13.956789441942
17	37	36	13.956542154332
17	38	37	13.917345386401
17	39	38	13.978046209081
17	40	39	13.982312166321
17	41	40	13.915473192113
17	42	41	13.879970237834
17	43	42	13.897895857247
17	44	43	13.999869057706
17	45	44	13.978634591533
17	46	45	13.942230677728
17	47	46	13.955766034983
17	48	47	13.950300372976
17	49	48	13.917481608128
17	50	49	13.942320762996
17	51	50	13.893100212866
17	52	51	13.91633811252
17	53	52	13.928179549885
17	54	53	13.968941585214
17	55	54	13.947614409933
17	56	55	13.993828555658
17	57	56	13.915365449623
17	58	57	13.876728287677
17	59	58	13.918426910553
17	60	59	13.974088552413
17	61	60	13.92781890474
17	62	61	13.871840020602
17	63	62	13.950818891171
17	64	63	13.896373478309
17	65	64	13.98123223257
17	67	65	13.934642261642
17	157	66	13.995758003502
17	158	67	13.879077432866
17	159	68	13.899420192223
17	160	69	13.964884717481
17	161	70	13.997399434138
17	162	71	13.963054893557
17	163	72	13.99507131309
17	164	73	13.959758597296
17	165	74	13.892642100183
17	166	75	13.940251250723
17	167	76	13.994889584298
17	168	77	13.944894047023
17	169	78	13.899651392188
17	170	79	13.918337521636
17	171	80	12.682299991135
17	172	81	11.222258036733
17	173	82	6.7222580367331
17	174	83	8.2824802284273
17	175	84	10.407365347124
17	176	85	12.288563672635
17	177	86	13.989832558867
17	178	87	13.923362842468
17	179	88	13.975876405358
17	180	89	13.93839835058
17	181	90	13.920164887339
17	182	91	13.987886479371
17	183	92	13.946328101926
17	184	93	13.963491377556
17	185	94	13.876388441026
18	13	12	2.1600366940722
18	14	13	1.9872331942362
18	15	14	2.0233644350362
18	16	15	2.0845269323955
18	17	16	1.6463802463939
18	18	17	0.062865392190869
18	19	18	-0.0076996302837493
18	20	19	-0.060403190089856
18	21	20	0.055389072492252
18	22	21	-0.081352811804972
18	23	22	0.068838235610166
18	24	23	-0.0022090961970385
18	25	24	-0.025323235513643
18	26	25	0.0082162265526122
18	27	26	-0.056346664656886
18	28	27	-1.1798787761197
18	29	28	-1.4375456984038
18	30	29	-4.4516438954996
18	31	30	1.7785396289197
18	32	31	1.9308187227277
18	33	32	2.1227944273106
18	34	33	1.3314205097611
18	35	34	0.01912616018206
18	36	35	-0.028055220723617
18	37	36	-0.00024728761054682
18	38	37	-0.039196767930406
18	39	38	0.060700822679792
18	40	39	0.0042659572395483
18	41	40	-0.06683897420764
18	42	41	-0.035502954279073
18	43	42	0.017925619413145
18	44	43	0.10197320045903
18	45	44	-0.021234466172753
18	46	45	-0.036403913805263
18	47	46	0.013535357255023
18	48	47	-0.0054656620067544
18	49	48	-0.032818764848635
18	50	49	0.024839154868388
18	51	50	-0.049220550130123
18	52	51	0.023237899653614
18	53	52	0.011841437364929
18	54	53	0.040762035329827
18	55	54	-0.021327175281478
18	56	55	0.046214145724662
18	57	56	-0.078463106034324
18	58	57	-0.038637161946388
18	59	58	0.041698622875845
18	60	59	0.055661641859915
18	61	60	-0.046269647672306
18	62	61	-0.055978884138167
18	63	62	0.078978870569262
18	64	63	-0.054445412862115
18	65	64	0.084858754260932
18	67	65	-0.046589970928617
18	157	66	0.061115741860121
18	158	67	-0.11668057063594
18	159	68	0.0203427593573
18	160	69	0.065464525257703
18	161	70	0.032514716656879
18	162	71	-0.034344540580641
18	163	72	0.032016419533175
18	164	73	-0.035312715794426
18	165	74	-0.067116497112439
18	166	75	0.047609150540083
18	167	76	0.054638333574404
18	168	77	-0.049995537274517
18	169	78	-0.045242654834874
18	170	79	0.018686129447767
18	171	80	-1.2360375305007
18	172	81	-1.4600419544023
18	173	82	-4.5
18	174	83	1.5602221916942
18	175	84	2.1248851186968
18	176	85	1.8811983255111
18	177	86	1.7012688862319
18	178	87	-0.066469716399443
18	179	88	0.052513562890235
18	180	89	-0.037478054778184
18	181	90	-0.018233463240321
18	182	91	0.067721592031884
18	183	92	-0.041558377444744
18	184	93	0.017163275629283
18	185	94	-0.087102936529554
19	13	12	4.6399364442395
19	14	13	5.459099048015
19	15	14	6.6616810382017
19	16	15	8.0324172249288
19	17	16	7.5484463594625
19	18	17	2.247674957111
19	19	18	2.0092894812461
19	20	19	1.8266349661585
19	21	20	2.2210298717235
19	22	21	1.7543037306746
19	23	22	2.264789170887
19	24	23	2.0257606197441
19	25	24	1.9456524984792
19	26	25	2.059016748537
19	27	26	1.8373388380236
19	28	27	0.973
19	29	28	0.973
19	30	29	0.973
19	31	30	5.2602175796137
19	32	31	6.6156566027659
19	33	32	8.3694083781091
19	34	33	6.5165491496521
19	35	34	2.1017560319966
19	36	35	1.9400571066544
19	37	36	2.0335662245147
19	38	37	1.8989280401226
19	39	38	2.2410813776431
19	40	39	2.0514099723484
19	41	40	1.8060532207838
19	42	41	1.9078333116417
19	43	42	2.0884562634303
19	44	43	2.3828885778754
19	45	44	1.9651224554136
19	46	45	1.910615850939
19	47	46	2.0798426520326
19	48	47	2.015384407742
19	49	48	1.9203331804895
19	50	49	2.1164070517746
19	51	50	1.8631262853673
19	52	51	2.108230627045
19	53	52	2.0712498573739
19	54	53	2.1728920736305
19	55	54	1.9617970432444
19	56	55	2.1940726512002
19	57	56	1.7670612526642
19	58	57	1.8970499029483
19	59	58	2.1703787731
19	60	59	2.2236475952785
19	61	60	1.876156120652
19	62	61	1.8386234882413
19	63	62	2.2993516664104
19	64	63	1.8459222947006
19	65	64	2.3228538313892
19	67	65	1.8757004712267
19	157	66	2.2445546956586
19	158	67	1.6362226447506
19	159	68	2.096714827559
19	160	69	2.2555743425322
19	161	70	2.1482652379368
19	162	71	1.9194912088098
19	163	72	2.1463276308042
19	164	73	1.9159241804067
19	165	74	1.8031672167249
19	166	75	2.1926814474566
19	167	76	2.2226060743817
19	168	77	1.8651868385758
19	169	78	1.8770404241569
19	170	79	2.0931775117982
19	171	80	0.973
19	172	81	0.973
19	173	82	0.973
19	174	83	4.6763588865112
19	175	84	7.0457697501971
19	176	85	7.4454773865313
19	177	86	7.7737177996377
19	178	87	1.8079694223127
19	179	88	2.2132512754183
19	180	89	1.9066500006632
19	181	90	1.9695156486718
19	182	91	2.2659008158816
19	183	92	1.8936738738303
19	184	93	2.0928664134049
19	185	94	1.7349388279652
20	14	13	2414.9020294819
20	15	14	2411.9226306152
20	16	15	2407.1557433844
20	17	16	2402.1104710221
20	18	17	2395.7699587477
20	19	18	2388.0304223568
20	20	19	2379.4738079484
20	21	20	2370.893774931
20	22	21	2362.3077945379
20	23	22	2353.7435980395
20	24	23	2345.1609503828
20	25	24	2337.382531011
20	26	25	2333.9513923901
20	27	26	2339.5342791209
20	28	27	2348.8453277851
20	29	28	2357.9087556405
20	30	29	2368.8976739903
20	31	30	2380.9775286298
20	32	31	2393.1030453129
20	33	32	2405.2335576123
20	34	33	2416.5418459401
20	35	34	2423.9663700609
20	36	35	2430.570008137
20	37	36	2432.1000471369
20	38	37	2433.9002697327
20	39	38	2435.9543662666
20	40	39	2437.9596728822
20	41	40	2438.9494181712
20	42	41	2439.9070256213
20	43	42	2440.9176562928
20	44	43	2441.9269052453
20	45	44	2442.9366141059
20	46	45	2443.9464281293
20	47	46	2444.9573541252
20	48	47	2445.9691156872
20	49	48	2446.979716951
20	50	49	2447.9896090399
20	51	50	2448.9998733379
20	52	51	2450.0085675253
20	53	52	2450.2645866362
20	54	53	2449.1499465979
20	55	54	2448.0369973981
20	56	55	2446.9233345203
20	57	56	2445.8120863364
20	58	57	2444.7009855164
20	59	58	2443.5879624323
20	60	59	2442.4739204658
20	61	60	2441.3600381962
20	62	61	2440.2864050268
20	63	62	2439.3445139695
20	64	63	2438.5901630576
20	65	64	2436.8932832642
20	67	65	2429.488703159
20	157	66	2417.5025738811
20	158	67	2403.9129781366
20	159	68	2389.9861979192
20	160	69	2376.0739265668
20	161	70	2362.1500415469
20	162	71	2348.2060115275
20	163	72	2334.2734054149
20	164	73	2320.3213743683
20	165	74	2306.4009303466
20	166	75	2292.4771050191
20	167	76	2278.5479599123
20	168	77	2264.6368773527
20	169	78	2250.7243448626
20	170	79	2236.9039189327
20	171	80	2223.1179117287
20	172	81	2209.6039438429
20	173	82	2196.4025677925
20	174	83	2183.1901106401
20	175	84	2170.7350373176
20	176	85	2158.7224374937
20	177	86	2148.7456293084
20	178	87	2142.2674842543
20	179	88	2135.7545730094
20	180	89	2128.7294569926
20	181	90	2120.3969778569
20	182	91	2110.9437647488
20	183	92	2101.4258741168
20	184	93	2091.8811018262
20	185	94	2082.3479541944
21	14	13	1578.4413889889
21	15	14	1579.5354087027
21	16	15	1581.5597135043
21	17	16	1586.6698793434
21	18	17	1593.0919447746
21	19	18	1600.9310288979
21	20	19	1609.5977004888
21	21	20	1618.2880919036
21	22	21	1626.984507191
21	23	22	1635.6588583943
21	24	23	1644.3518980779
21	25	24	1653.7452424029
21	26	25	1665.1186078088
21	27	26	1675.0684384657
21	28	27	1682.929411401
21	29	28	1691.1030376544
21	30	29	1695.1540113101
21	31	30	1696.8415124407
21	32	31	1698.123416462
21	33	32	1699.2704374064
21	34	33	1700.3397115832
21	35	34	1700.9751795586
21	36	35	1703.8619754324
21	37	36	1713.6420474732
21	38	37	1725.4884275207
21	39	38	1739.0054271705
21	40	39	1752.7795728892
21	41	40	1766.6691963989
21	42	41	1780.5653979182
21	43	42	1794.4635625677
21	44	43	1808.342725859
21	45	44	1822.2282137927
21	46	45	1836.1151479203
21	47	46	1850.0173738636
21	48	47	1863.9310904881
21	49	48	1877.8288507257
21	50	49	1891.7168584093
21	51	50	1905.6099847034
21	52	51	1919.4815188777
21	53	52	1933.3752725068
21	54	53	1947.287428339
21	55	54	1961.1784803104
21	56	55	1975.07843991
21	57	56	1988.9482609928
21	58	57	2002.8162427824
21	59	58	2016.7082169261
21	60	59	2030.6129080458
21	61	60	2044.5156059386
21	62	61	2058.405807049
21	63	62	2072.3219886608
21	64	63	2086.2172475774
21	65	64	2100.0155986995
21	67	65	2111.7128415443
21	157	66	2118.6569472738
21	158	67	2120.7883864809
21	159	68	2120.3179975469
21	160	69	2119.8480986627
21	161	70	2119.3778075166
21	162	71	2118.9068359565
21	163	72	2118.436250248
21	164	73	2117.965008446
21	165	74	2117.4948335225
21	166	75	2117.0245443936
21	167	76	2116.5540755838
21	168	77	2116.0842168517
21	169	78	2115.614309147
21	170	79	2114.0200830428
21	171	80	2112.0651206672
21	172	81	2108.8805809543
21	173	82	2104.4032888655
21	174	83	2099.9222385827
21	175	84	2093.8278338108
21	176	85	2086.7562059667
21	177	86	2080.8830165165
21	178	87	2077.0694348095
21	179	88	2071.8133796817
21	180	89	2064.3140604822
21	181	90	2055.4191296929
21	182	91	2045.3278141357
21	183	92	2035.1674552495
21	184	93	2024.9784001615
21	185	94	2014.8017544113
22	15	14	4.1202440707026
22	16	15	6.098204819389
22	17	16	7.9892263333931
22	18	17	9.9395148638858
22	19	18	11.888312638128
22	20	19	12.215156767303
22	21	20	12.204687935296
22	22	21	12.224623291104
22	23	22	12.210776680999
22	24	23	12.179672799767
22	25	24	12.160016026092
22	26	25	12.139849843977
22	27	26	12.143721937142
22	28	27	12.197962211408
22	29	28	12.182525644068
22	30	29	12.239106989266
22	31	30	12.235862109773
22	32	31	12.230306803957
22	33	32	12.179537976573
22	34	33	9.6862829881538
22	35	34	6.6424673210172
22	36	35	8.8478549035121
22	37	36	10.859035527671
22	38	37	12.909402498856
22	39	38	13.992245385351
22	40	39	13.943547738914
22	41	40	13.916770352069
22	42	41	13.945535122917
22	43	42	13.906703865982
22	44	43	13.929781103753
22	45	44	13.945612282939
22	46	45	13.915959525181
22	47	46	13.967522231955
22	48	47	13.972525620006
22	49	48	13.883536923684
22	50	49	13.909812615521
22	51	50	13.926507747294
22	52	51	13.897951097498
22	53	52	13.93396450304
22	54	53	13.967009024217
22	55	54	13.893721483571
22	56	55	13.88568516843
22	57	56	13.927406547926
22	58	57	13.918185825639
22	59	58	13.942741125419
22	60	59	13.888825567171
22	61	60	13.956811681101
22	62	61	13.967852384013
22	63	62	13.917130999181
22	64	63	13.962056111419
22	65	64	13.973261172024
22	67	65	13.976665152721
22	157	66	13.929094264333
22	158	67	13.988442988638
22	159	68	13.963501574658
22	160	69	13.904512311171
22	161	70	13.881385968712
22	162	71	13.955823229789
22	163	72	13.91319160128
22	164	73	13.978148939102
22	165	74	13.900433905981
22	166	75	13.932413932714
22	167	76	13.914297275015
22	168	77	13.888481071207
22	169	78	13.889434551739
22	170	79	13.943012665312
22	171	80	13.907442593111
22	172	81	13.992288785644
22	173	82	13.906425842233
22	174	83	13.939350437876
22	175	84	13.895723804492
22	176	85	13.979782601763
22	177	86	9.5595155807823
22	178	87	7.2008205324427
22	179	88	9.2703087067014
22	180	89	11.127202614547
22	181	90	13.051637053345
22	182	91	13.982521570069
22	183	92	13.958346453356
22	184	93	13.987895995232
22	185	94	13.977045242079
23	16	15	1.9779607486865
23	17	16	1.8910215140041
23	18	17	1.9502885304927
23	19	18	1.9487977742427
23	20	19	0.32684412917498
23	21	20	-0.010468832007609
23	22	21	0.019935355808121
23	23	22	-0.013846610104666
23	24	23	-0.031103881231974
23	25	24	-0.019656773675234
23	26	25	-0.020166182115208
23	27	26	0.0038720931648282
23	28	27	0.054240274266339
23	29	28	-0.015436567340512
23	30	29	0.056581345198211
23	31	30	-0.0032448794925592
23	32	31	-0.0055553058162339
23	33	32	-0.050768827383871
23	34	33	-2.4932549884193
23	35	34	-3.0438156671366
23	36	35	2.2053875824949
23	37	36	2.0111806241586
23	38	37	2.0503669711854
23	39	38	1.082842886495
23	40	39	-0.048697646437214
23	41	40	-0.026777386844623
23	42	41	0.028764770848211
23	43	42	-0.038831256935373
23	44	43	0.023077237771357
23	45	44	0.015831179185771
23	46	45	-0.02965275775874
23	47	46	0.051562706774567
23	48	47	0.0050033880514082
23	49	48	-0.088988696322776
23	50	49	0.026275691837073
23	51	50	0.016695131773595
23	52	51	-0.028556649796665
23	53	52	0.036013405541889
23	54	53	0.033044521177652
23	55	54	-0.07328754064627
23	56	55	-0.0080363151407798
23	57	56	0.041721379496158
23	58	57	-0.009220722287429
23	59	58	0.024555299780332
23	60	59	-0.053915558247827
23	61	60	0.067986113929656
23	62	61	0.01104070291156
23	63	62	-0.050721384831705
23	64	63	0.044925112237689
23	65	64	0.011205060605425
23	67	65	0.0034039806970405
23	157	66	-0.047570888388437
23	158	67	0.059348724305165
23	159	68	-0.024941413979978
23	160	69	-0.058989263486584
23	161	70	-0.023126342459582
23	162	71	0.07443726107711
23	163	72	-0.042631628508678
23	164	73	0.064957337821832
23	165	74	-0.077715033120475
23	166	75	0.031980026732198
23	167	76	-0.018116657698991
23	168	77	-0.025816203807482
23	169	78	0.0009534805314626
23	170	79	0.053578113573604
23	171	80	-0.035570072201081
23	172	81	0.084846192533149
23	173	82	-0.085862943411339
23	174	83	0.032924595642836
23	175	84	-0.043626633384266
23	176	85	0.084058797270991
23	177	86	-4.4202670209802
23	178	87	-2.3586950483396
23	179	88	2.0694881742587
23	180	89	1.8568939078459
23	181	90	1.9244344387972
23	182	91	0.93088451672424
23	183	92	-0.024175116713158
23	184	93	0.029549541876186
23	185	94	-0.010850753153209
24	16	15	4.3320714987557
24	17	16	5.183486961616
24	18	17	6.3519610936481
24	19	18	7.4221751260776
24	20	19	2.8298121443499
24	21	20	1.8359013100526
24	22	21	1.9272118037584
24	23	22	1.8264910266966
24	24	23	1.7731570813911
24	25	24	1.8050958468359
24	26	25	1.8019031629654
24	27	26	1.8725806391293
24	28	27	2.0255422754474
24	29	28	1.8193896864997
24	30	29	2.0366725650512
24	31	30	1.8599189826534
24	32	31	1.8526149529095
24	33	32	1.7154241454235
24	34	33	0.973
24	35	34	0.973
24	36	35	6.303427561984
24	37	36	7.0154445701984
24	38	37	8.3105242583869
24	39	38	5.6895407911334
24	40	39	1.8694269918782
24	41	40	1.940528745875
24	42	41	2.1299480592744
24	43	42	1.8991694406835
24	44	43	2.1091372507868
24	45	44	2.0864880630902
24	46	45	1.9308080812489
24	47	46	2.2090898398184
24	48	47	2.0528811368149
24	49	48	1.7292056532406
24	50	49	2.1177127068995
24	51	50	2.0873649665686
24	52	51	1.9327741224938
24	53	52	2.1530281120875
24	54	53	2.1466978352857
24	55	54	1.7825965253946
24	56	55	2.0002810933209
24	57	56	2.1714609797662
24	58	57	1.999553894506
24	59	58	2.1154986829051
24	60	59	1.8470270282863
24	61	60	2.2631030576132
24	62	61	2.0727204260443
24	63	62	1.8602543209442
24	64	63	2.1861282607859
24	65	64	2.0738417857687
24	67	65	2.0479224526271
24	157	66	1.8719038420292
24	158	67	2.237740187174
24	159	68	1.9511766336835
24	160	69	1.8314175593046
24	161	70	1.9493699794006
24	162	71	2.2846833100323
24	163	72	1.8870266347629
24	164	73	2.2554324657204
24	165	74	1.7683289252042
24	166	75	2.1393135082333
24	167	76	1.9693351041569
24	168	77	1.9410484918255
24	169	78	2.0307471316685
24	170	79	2.213052394446
24	171	80	1.9101682516725
24	172	81	2.3241703998575
24	173	82	1.7415194485398
24	174	83	2.1432480945603
24	175	84	1.8820953915874
24	176	85	2.3199805746165
24	177	86	0.973
24	178	87	0.973
24	179	88	6.2543312855333
24	180	89	6.7535979868512
24	181	90	7.9981972462927
24	182	91	5.1739394581234
24	183	92	1.9532582730095
24	184	93	2.1372207993622
24	185	94	1.9999450642856
25	17	16	2414.866372544
25	18	17	2411.9174920589
25	19	18	2407.1873548935
25	20	19	2402.1033929951
25	21	20	2395.6770685576
25	22	21	2387.9239549194
25	23	22	2378.7440047435
25	24	23	2368.9560721758
25	25	24	2359.1622850237
25	26	25	2349.3790714815
25	27	26	2340.0066479368
25	28	27	2334.2982135796
25	29	28	2338.9199148722
25	30	29	2349.5394145362
25	31	30	2359.6285321664
25	32	31	2372.2737052037
25	33	32	2385.1868441795
25	34	33	2397.5486702835
25	35	34	2407.0889696613
25	36	35	2415.9658388555
25	37	36	2423.647086352
25	38	37	2430.5697055
25	39	38	2432.1309365664
25	40	39	2433.9420996767
25	41	40	2436.0121670167
25	42	41	2438.0026650226
25	43	42	2438.973087457
25	44	43	2439.9357083738
25	45	44	2440.9457836029
25	46	45	2441.9557050534
25	47	46	2442.966328533
25	48	47	2443.9770825638
25	49	48	2444.9875938372
25	50	49	2445.9973880129
25	51	50	2447.0079984484
25	52	51	2448.0195114657
25	53	52	2449.0300190145
25	54	53	2450.0409876643
25	55	54	2450.2291497608
25	56	55	2449.1158151244
25	57	56	2448.0031307412
25	58	57	2446.8896077783
25	59	58	2445.7771886681
25	60	59	2444.6627922727
25	61	60	2443.5487240007
25	62	61	2442.4356510476
25	63	62	2441.3226709429
25	64	63	2440.2525785718
25	65	64	2439.3108728111
25	67	65	2438.5962522177
25	157	66	2436.7990822749
25	158	67	2429.1662416559
25	159	68	2417.0518166292
25	160	69	2403.4340603166
25	161	70	2389.5047204611
25	162	71	2375.5916553084
25	163	72	2361.6469742537
25	164	73	2347.7140670773
25	165	74	2333.7898680173
25	166	75	2319.8688041087
25	167	76	2305.9591036874
25	168	77	2292.0364868315
25	169	78	2278.1079656912
25	170	79	2264.1876915417
25	171	80	2250.264247493
25	172	81	2236.4483706289
25	173	82	2222.6317865221
25	174	83	2209.1465974182
25	175	84	2195.957879093
25	176	85	2182.7524497161
25	177	86	2170.4898803225
25	178	87	2160.8078469398
25	179	88	2151.7062874045
25	180	89	2144.267903639
25	181	90	2138.2021703735
25	182	91	2131.7268413273
25	183	92	2123.9337107464
25	184	93	2114.8261187817
25	185	94	2105.2889673712
26	17	16	1578.4544820301
26	18	17	1579.5372955538
26	19	18	1581.5276954006
26	20	19	1586.6770484103
26	21	20	1593.1860297397
26	22	21	1601.0388657451
26	23	22	1610.3368905932
26	24	23	1620.2507178467
26	25	24	1630.1704749865
26	26	25	1640.0795225166
26	27	26	1650.3859643145
26	28	27	1662.6340421
26	29	28	1674.572302388
26	30	29	1683.5553562185
26	31	30	1692.6539752008
26	32	31	1695.658621354
26	33	32	1697.3425149294
26	34	33	1698.5437799906
26	35	34	1699.4458790058
26	36	35	1700.285246267
26	37	36	1700.9566909699
26	38	37	1703.861074903
26	39	38	1713.8453156259
26	40	39	1725.7636898225
26	41	40	1739.3857854959
26	42	41	1753.170717068
26	43	42	1767.0707531869
26	44	43	1780.9598423252
26	45	44	1794.8503685482
26	46	45	1808.7387800114
26	47	46	1822.6368457591
26	48	47	1836.5367068434
26	49	48	1850.4332295349
26	50	49	1864.3198907189
26	51	50	1878.2177770855
26	52	51	1892.128075731
26	53	52	1906.0245472016
26	54	53	1919.9273597188
26	55	54	1933.8175707525
26	56	55	1947.7134334734
26	57	56	1961.6011801884
26	58	57	1975.4993934687
26	59	58	1989.3838292314
26	60	59	2003.2929440839
26	61	60	2017.1979635302
26	62	61	2031.0905601038
26	63	62	2044.9819978084
26	64	63	2058.9055836303
26	65	64	2072.8190275338
26	67	65	2086.7368559008
26	157	66	2100.5148639437
26	158	67	2112.1094423961
26	159	68	2118.8584406646
26	160	69	2120.7722106203
26	161	70	2120.3017352335
26	162	71	2119.8318095375
26	163	72	2119.3608159879
26	164	73	2118.8902201112
26	165	74	2118.4199183583
26	166	75	2117.9497224977
26	167	76	2117.4799104491
26	168	77	2117.0096621364
26	169	78	2116.5392144015
26	170	79	2116.0690452158
26	171	80	2115.5987689644
26	172	81	2113.9554827726
26	173	82	2111.9961843556
26	174	83	2108.7254703417
26	175	84	2104.2524711639
26	176	85	2099.773804375
26	177	86	2093.6835137587
26	178	87	2087.9838535804
26	179	88	2082.6259091906
26	180	89	2078.2470501158
26	181	90	2074.2507629106
26	182	91	2067.5137716094
26	183	92	2059.1945960047
26	184	93	2049.4722314049
26	185	94	2039.2913116151
27	18	17	4.11254450365
27	19	18	6.0975231633921
27	20	19	8.1241239797909
27	21	20	10.018434339895
27	22	21	11.94044197294
27	23	22	13.966010854098
27	24	23	13.99429374554
27	25	24	13.992908905046
27	26	25	13.889738958394
27	27	26	13.996094578244
27	28	27	13.943261206169
27	29	28	13.961094655516
27	30	29	13.829256838197
27	31	30	13.436515939642
27	32	31	13.16217219069
27	33	32	12.955925744517
27	34	33	11.26758099839
27	35	34	8.5044873526649
27	36	35	9.3420117710427
27	37	36	6.9079266154914
27	38	37	9.1319836530982
27	39	38	10.970689421588
27	40	39	12.982363875891
27	41	40	13.992697958478
27	42	41	13.936582251703
27	43	42	13.977668084782
27	44	43	13.986179260183
27	45	44	13.884867181559
27	46	45	13.927137885792
27	47	46	13.910710662541
27	48	47	13.909766360957
27	49	48	13.940070941378
27	50	49	13.877076953631
27	51	50	13.90827997843
27	52	51	13.954862964205
27	53	52	13.893197995736
27	54	53	13.963183217549
27	55	54	13.948198468271
27	56	55	13.944161438567
27	57	56	13.928642164022
27	58	57	13.919632288448
27	59	58	13.893341971666
27	60	59	13.941880325
27	61	60	13.998108282317
27	62	61	13.878701872779
27	63	62	13.982008344322
27	64	63	13.95228849458
27	65	64	13.945977008874
27	67	65	13.898765254379
27	157	66	13.884750159571
27	158	67	13.956998247474
27	159	68	13.973321173731
27	160	69	13.980317651937
27	161	70	13.967857702158
27	162	71	13.87017407299
27	163	72	13.907431576322
27	164	73	13.990516319459
27	165	74	13.997392567724
27	166	75	13.870992829092
27	167	76	13.910742897883
27	168	77	13.942907783722
27	169	78	13.901514352199
27	170	79	13.935490652611
27	171	80	13.969664366837
27	172	81	13.95211648741
27	173	82	13.994790883278
27	174	83	13.968339877434
27	175	84	13.89371735296
27	176	85	13.992478875967
27	177	86	13.009790151544
27	178	87	10.290731712855
27	179	88	10.772797350711
27	180	89	6.6251523498349
27	181	90	8.1855374499919
27	182	91	10.265350519404
27	183	92	12.274562798182
27	184	93	13.913973337458
27	185	94	13.913243416678
28	19	18	1.984978659742
28	20	19	2.0266008163989
28	21	20	1.8943103601038
28	22	21	1.9220076330448
28	23	22	2.0255688811579
28	24	23	0.028282891442068
28	25	24	-0.0013848404935555
28	26	25	-0.10316994665191
28	27	26	0.10635561984964
28	28	27	-0.05283337207511
28	29	28	0.017833449346945
28	30	29	-0.13183781731896
28	31	30	-0.39274089855419
28	32	31	-0.27434374895275
28	33	32	-0.20624644617294
28	34	33	-1.6883447461266
28	35	34	-2.7630936457253
28	36	35	0.83752441837784
28	37	36	-2.4340851555514
28	38	37	2.2240570376068
28	39	38	1.8387057684897
28	40	39	2.011674454303
28	41	40	1.0103340825873
28	42	41	-0.056115706774872
28	43	42	0.041085833078251
28	44	43	0.0085111754015088
28	45	44	-0.10131207862403
28	46	45	0.042270704233088
28	47	46	-0.016427223251666
28	48	47	-0.00094430158380554
28	49	48	0.030304580421653
28	50	49	-0.062993987747468
28	51	50	0.031203024799471
28	52	51	0.046582985774148
28	53	52	-0.061664968468248
28	54	53	0.069985221812967
28	55	54	-0.01498474927852
28	56	55	-0.0040370297036123
28	57	56	-0.015519274545367
28	58	57	-0.0090098755736836
28	59	58	-0.026290316781962
28	60	59	0.048538353333717
28	61	60	0.056227957317605
28	62	61	-0.11940640953835
28	63	62	0.10330647154246
28	64	63	-0.029719849741086
28	65	64	-0.0063114857068296
28	67	65	-0.047211754494347
28	157	66	-0.014015094807837
28	158	67	0.072248087902555
28	159	68	0.016322926257271
28	160	69	0.0069964782055472
28	161	70	-0.01245994977886
28	162	71	-0.097683629167731
28	163	72	0.03725750333164
28	164	73	0.083084743137006
28	165	74	0.0068762482656162
28	166	75	-0.12639973863261
28	167	76	0.039750068790745
28	168	77	0.032164885839448
28	169	78	-0.041393431522884
28	170	79	0.033976300412323
28	171	80	0.034173714225181
28	172	81	-0.017547879426274
28	173	82	0.042674395868088
28	174	83	-0.026451005844866
28	175	84	-0.074622524473815
28	176	85	0.098761523007415
28	177	86	-0.98268872442347
28	178	87	-2.7190584386889
28	179	88	0.4820656378558
28	180	89	-4.1476450008758
28	181	90	1.560385100157
28	182	91	2.0798130694125
28	183	92	2.0092122787773
28	184	93	1.6394105392768
28	185	94	-0.00072992078028733
29	19	18	4.3420194955082
29	20	19	5.5193514834883
29	21	20	6.2598837528783
29	22	21	7.3741311479677
29	23	22	8.8530434321966
29	24	23	2.13365012742
29	25	24	2.0334505025289
29	26	25	1.6822325806597
29	27	26	2.3971909293526
29	28	27	1.855503707612
29	29	28	2.0948662776171
29	30	29	1.5820533004124
29	31	30	0.973
29	32	31	0.973
29	33	32	1.2919135943652
29	34	33	0.973
29	35	34	0.973
29	36	35	3.5215990826384
29	37	36	0.973
29	38	37	6.5156001891765
29	39	38	6.6226227280211
29	40	39	8.2324265791826
29	41	40	5.4451881818867
29	42	41	1.8438824401449
29	43	42	2.1749617238466
29	44	43	2.0661193061513
29	45	44	1.6880752085194
29	46	45	2.1732746516206
29	47	46	1.9746491499881
29	48	47	2.0264593789898
29	49	48	2.1345252785117
29	50	49	1.8156237109116
29	51	50	2.1340627994298
29	52	51	2.1908906066732
29	53	52	1.8214679161102
29	54	53	2.2705861872936
29	55	54	1.9831738713403
29	56	55	2.0195663816392
29	57	56	1.9794538530861
29	58	57	2.0004054330977
29	59	58	1.93992520771
29	60	59	2.1959885866008
29	61	60	2.2283411417848
29	62	61	1.6270777435242
29	63	62	2.3851117990842
29	64	63	1.9340301948742
29	65	64	2.0121056433488
29	67	65	1.8703641945081
29	157	66	1.9801814994952
29	158	67	2.277460917713
29	159	68	2.0910828619716
29	160	69	2.0604034814904
29	161	70	1.9936118250746
29	162	71	1.6990698160563
29	163	72	2.1542627543164
29	164	73	2.3180133884777
29	165	74	2.0617763986943
29	166	75	1.6031383447134
29	167	76	2.162986061906
29	168	77	2.1410867290053
29	169	78	1.8901056602043
29	170	79	2.146355584398
29	171	80	2.1507923006745
29	172	81	1.9749416139146
29	173	82	2.1822433496695
29	174	83	1.9465606391027
29	175	84	1.778126137113
29	176	85	2.371118873231
29	177	86	0.973
29	178	87	0.973
29	179	88	2.996733507043
29	180	89	0.973
29	181	90	4.6337304075078
29	182	91	6.8504825360956
29	183	92	7.8165561438188
29	184	93	7.5274357142254
29	185	94	2.027531648606
30	20	19	2414.8588002162
30	21	20	2411.8128147094
30	22	21	2407.1980394585
30	23	22	2402.4260893827
30	24	23	2396.4703598532
30	25	24	2389.2222769874
30	26	25	2380.6475507468
30	27	26	2371.4675885644
30	28	27	2362.2853867376
30	29	28	2353.1014532228
30	30	29	2343.9167522368
30	31	30	2335.7592630242
30	32	31	2334.0763715116
30	33	32	2342.9457734847
30	34	33	2352.7630564623
30	35	34	2362.8963906621
30	36	35	2375.8179889829
30	37	36	2388.7877361589
30	38	37	2401.7727345998
30	39	38	2414.1003036475
30	40	39	2422.4116629731
30	41	40	2429.7483392076
30	42	41	2431.8187159494
30	43	42	2433.5863239734
30	44	43	2435.6333255254
30	45	44	2437.7251014278
30	46	45	2438.8311097387
30	47	46	2439.7530554269
30	48	47	2440.7623816305
30	49	48	2441.7733011593
30	50	49	2442.7835379966
30	51	50	2443.7947770543
30	52	51	2444.8051972518
30	53	52	2445.8169310748
30	54	53	2446.8271123795
30	55	54	2447.8372403309
30	56	55	2448.8468136862
30	57	56	2449.85968903
30	58	57	2450.4280289282
30	59	58	2449.3144754737
30	60	59	2448.1991392631
30	61	60	2447.0859020924
30	62	61	2445.9733171484
30	63	62	2444.8601511701
30	64	63	2443.7485429292
30	65	64	2442.6356549449
30	67	65	2441.5218806025
30	157	66	2440.4231678097
30	158	67	2439.4804845047
30	159	68	2438.6159434677
30	160	69	2437.2669850449
30	161	70	2430.7552516428
30	162	71	2419.3404297139
30	163	72	2405.9348433106
30	164	73	2392.0194124001
30	165	74	2378.0801423873
30	166	75	2364.1731750782
30	167	76	2350.2312736156
30	168	77	2336.2981928445
30	169	78	2322.3888118805
30	170	79	2308.4617877044
30	171	80	2294.5128275382
30	172	81	2280.5779648197
30	173	82	2266.6709620872
30	174	83	2252.7608605443
30	175	84	2238.924529921
30	176	85	2225.1218552301
30	177	86	2211.5316822525
30	178	87	2198.3284832879
30	179	88	2185.1456202264
30	180	89	2172.5356837298
30	181	90	2161.5595377026
30	182	91	2151.1189452896
30	183	92	2143.9241486358
30	184	93	2137.5404434545
30	185	94	2130.7910450455
31	20	19	1578.4572625495
31	21	20	1579.5757325301
31	22	21	1581.5168734081
31	23	22	1586.3502014261
31	24	23	1592.3825349454
31	25	24	1599.723844354
31	26	25	1608.4088607347
31	27	26	1617.7068977449
31	28	27	1627.0072032055
31	29	28	1636.3092626277
31	30	29	1645.6120993933
31	31	30	1655.8232780742
31	32	31	1668.6061278731
31	33	32	1677.8234253228
31	34	33	1686.4625172503
31	35	34	1694.2570089856
31	36	35	1696.1883798428
31	37	36	1697.7153751645
31	38	37	1698.9431934794
31	39	38	1700.1088474551
31	40	39	1700.8851519767
31	41	40	1702.3337102309
31	42	41	1711.7907452099
31	43	42	1723.4225047911
31	44	43	1736.8928158525
31	45	44	1750.6577649042
31	46	45	1764.5359474756
31	47	46	1778.4480041219
31	48	47	1792.3282297663
31	49	48	1806.2303667758
31	50	49	1820.1231154287
31	51	50	1834.0296465904
31	52	51	1847.9249168085
31	53	52	1861.8382519679
31	54	53	1875.7302369392
31	55	54	1889.6214881958
31	56	55	1903.5051126648
31	57	56	1917.4341459852
31	58	57	1931.3353003571
31	59	58	1945.2338942112
31	60	59	1959.1547391778
31	61	60	1973.0493854005
31	62	61	1986.9358909866
31	63	62	2000.8296486354
31	64	63	2014.703963697
31	65	64	2028.5942516169
31	67	65	2042.495602442
31	157	66	2056.3851745035
31	158	67	2070.3130613565
31	159	68	2084.1962146899
31	160	69	2098.0349792624
[...]
107	178	87	11.238339653969
107	179	88	13.148248238718
107	180	89	13.90304082467
107	181	90	13.965037074615
107	182	91	13.888039301813
107	183	92	13.971978112771
107	184	93	13.949917094645
107	185	94	13.939473128845
108	157	66	2.0492601770512
108	158	67	1.7556671955599
108	159	68	1.8207681317185
108	160	69	1.9299720405973
108	161	70	0.42669066539084
108	162	71	0.028619987852872
108	163	72	-0.057183753198478
108	164	73	-0.029144249458332
108	165	74	0.074407861148938
108	166	75	-0.012339432868174
108	167	76	-0.093660827081186
108	168	77	0.072740472387522
108	169	78	-0.060197243338916
108	170	79	0.026511954031884
108	171	80	0.028010710261297
108	172	81	-0.067588551167864
108	173	82	0.050279428684153
108	174	83	0.0067053016857237
108	175	84	-2.965684290064
108	176	85	-2.3162749667316
108	177	86	2.279591250075
108	178	87	2.0068890356575
108	179	88	1.9099085847498
108	180	89	0.75479258595151
108	181	90	0.061996249945368
108	182	91	-0.076997772802134
108	183	92	0.083938810958061
108	184	93	-0.02206101812655
108	185	94	-0.010443965799642
109	157	66	4.5669665819023
109	158	67	4.9718018898546
109	159	68	6.0265212158169
109	160	69	7.3415326447534
109	161	70	3.1336645143854
109	162	71	1.9596366708659
109	163	72	1.7010311945519
109	164	73	1.781322330603
109	165	74	2.0940258423692
109	166	75	1.8361547731665
109	167	76	1.5893789470923
109	168	77	2.0855153956409
109	169	78	1.6885250851001
109	170	79	1.9457988937384
109	171	80	1.9529129732982
109	172	81	1.6658561967065
109	173	82	2.0168629541678
109	174	83	1.8890738486753
109	175	84	0.973
109	176	85	0.973
109	177	86	6.6995878675228
109	178	87	7.218798840255
109	179	88	8.0062312204286
109	180	89	4.5579728479528
109	181	90	2.243919593461
109	182	91	1.7697007089191
109	183	92	2.3186194870025
109	184	93	1.9595533262393
109	185	94	1.9975686834252
110	158	67	2414.8461773879
110	159	68	2411.8156173957
110	160	69	2407.0654892415
110	161	70	2401.9492347768
110	162	71	2395.3429720888
110	163	72	2387.2616390446
110	164	73	2377.8896717046
110	165	74	2368.132777152
110	166	75	2358.352849392
110	167	76	2348.5864132382
110	168	77	2339.3564212093
110	169	78	2334.1342350811
110	170	79	2339.6713423185
110	171	80	2350.2392751323
110	172	81	2360.353480833
110	173	82	2373.2728725324
110	174	83	2386.2492387758
110	175	84	2398.4646979315
110	176	85	2407.8223555434
110	177	86	2416.8864083674
110	178	87	2424.347609523
110	179	88	2430.7579844227
110	180	89	2432.3336173269
110	181	90	2434.171370499
110	182	91	2436.2465128198
110	183	92	2438.1745510916
110	184	93	2439.0716108456
110	185	94	2440.0522935766
111	158	67	1578.4618975855
111	159	68	1579.5747033991
111	160	69	1581.6511285175
111	161	70	1586.8331894474
111	162	71	1593.5244234363
111	163	72	1601.709700482
111	164	73	1611.2022122648
111	165	74	1621.0846022842
111	166	75	1630.9903217694
111	167	76	1640.8823761158
111	168	77	1651.2183557283
111	169	78	1663.6215842515
111	170	79	1675.1791252401
111	171	80	1684.1865080334
111	172	81	1693.3077520663
111	173	82	1695.8079653131
111	174	83	1697.4689635951
111	175	84	1698.6303965217
111	176	85	1699.5152255381
111	177	86	1700.3722922616
111	178	87	1700.9972557854
111	179	88	1704.8105924092
111	180	89	1715.179058088
111	181	90	1727.2724084109
111	182	91	1740.9279000396
111	183	92	1754.7345432648
111	184	93	1768.6573194787
111	185	94	1782.5631187661
112	159	68	4.1832233416825
112	160	69	6.094705743054
112	161	70	8.2377684972995
112	162	71	10.383634851228
112	163	72	12.377837524719
112	164	73	13.95514258502
112	165	74	13.851584344874
112	166	75	13.90825316288
112	167	76	13.850232986188
112	168	77	13.868391821445
112	169	78	13.842565385092
112	170	79	13.880377471799
112	171	80	13.824036118681
112	172	81	13.44125427326
112	173	82	13.195892382637
112	174	83	12.988348819491
112	175	84	11.051899495583
112	176	85	8.5596046509373
112	177	86	9.4337142466086
112	178	87	7.176029561783
112	179	88	9.4246045461477
112	180	89	11.247950141872
112	181	90	13.102967111528
112	182	91	13.944614645445
112	183	92	13.918172166757
112	184	93	13.963109199011
112	185	94	13.972577105726
113	160	69	1.9114824013715
113	161	70	2.1430627542455
113	162	71	2.1458663539286
113	163	72	1.9942026734911
113	164	73	1.5773050603013
113	165	74	-0.10355824014638
113	166	75	0.056668818006292
113	167	76	-0.058020176691935
113	168	77	0.018158835256473
113	169	78	-0.025826436353382
113	170	79	0.03781208670698
113	171	80	-0.056341353117922
113	172	81	-0.38278184542026
113	173	82	-0.24536189062374
113	174	83	-0.20754356314608
113	175	84	-1.9364493239075
113	176	85	-2.4922948446457
113	177	86	0.87410959567126
113	178	87	-2.2576846848255
113	179	88	2.2485749843647
113	180	89	1.8233455957239
113	181	90	1.8550169696566
113	182	91	0.84164753391702
113	183	92	-0.026442478687969
113	184	93	0.044937032253948
113	185	94	0.0094679067144163
114	160	69	4.2325536946742
114	161	70	5.8136589782112
114	162	71	7.0842665770013
114	163	72	7.8311198804753
114	164	73	7.3390305246716
114	165	74	1.6780100664083
114	166	75	2.2194183790726
114	167	76	1.8299085364327
114	168	77	2.0861090205836
114	169	78	1.9366386539141
114	170	79	2.1531225624654
114	171	80	1.833214196001
114	172	81	0.973
114	173	82	1.1785376743835
114	174	83	1.289317924974
114	175	84	0.973
114	176	85	0.973
114	177	86	3.6299494821753
114	178	87	0.973
114	179	88	6.7492305672886
114	180	89	6.7267058613098
114	181	90	7.8077049573239
114	182	91	4.8616638555215
114	183	92	1.9417859483535
114	184	93	2.1862874726952
114	185	94	2.0679202485877
115	161	70	2414.8737180224
115	162	71	2411.8680781076
115	163	72	2407.1568522488
115	164	73	2402.2695560248
115	165	74	2396.026197728
115	166	75	2388.8156860289
115	167	76	2381.5505374246
115	168	77	2374.29244742
115	169	78	2367.0056487003
115	170	79	2359.7510255593
115	171	80	2352.5099029642
115	172	81	2345.2446918846
115	173	82	2338.5956882177
115	174	83	2334.510232391
115	175	84	2335.3077529006
115	176	85	2343.1748500988
115	177	86	2350.9512399695
115	178	87	2358.6249918449
115	179	88	2368.0034051634
115	180	89	2378.2454732715
115	181	90	2388.5126780019
115	182	91	2398.8207334133
115	183	92	2409.1298634055
115	184	93	2418.9392981076
115	185	94	2425.9976320501
116	161	70	1578.4517848091
116	162	71	1579.555440099
116	163	72	1581.5585903777
116	164	73	1586.5087481523
116	165	74	1592.8324099882
116	166	75	1600.1356649809
116	167	76	1607.4942596303
116	168	77	1614.8457048917
116	169	78	1622.2262281263
116	170	79	1629.5741619319
116	171	80	1636.9084215444
116	172	81	1644.2670794735
116	173	82	1652.19221236
116	174	83	1661.3571825419
116	175	84	1671.3368108161
116	176	85	1678.008418465
116	177	86	1684.8285757564
116	178	87	1691.748957403
116	179	88	1695.0203463631
116	180	89	1696.5163368834
116	181	90	1697.6893665791
116	182	91	1698.6640620539
116	183	92	1699.6388591379
116	184	93	1700.5664066952
116	185	94	1701.0928027472
117	162	71	4.0859593419879
117	163	72	6.0045190997058
117	164	73	7.8119547564685
117	165	74	9.7132447450151
117	166	75	10.305879691574
117	167	76	10.360164749592
117	168	77	10.362935353057
117	169	78	10.312807143824
117	170	79	10.375441872943
117	171	80	10.299517820359
117	172	81	10.312693880121
117	173	82	10.402105987973
117	174	83	10.374811264868
117	175	84	10.33296438281
117	176	85	10.292473317215
117	177	86	10.402252755186
117	178	87	10.334053397409
117	179	88	10.286512546665
117	180	89	10.355546063285
117	181	90	10.388081112732
117	182	91	10.317922925041
117	183	92	10.347311473631
117	184	93	8.4716055661829
117	185	94	7.5457496343406
118	163	72	1.9185597577179
118	164	73	1.8074356567627
118	165	74	1.9012899885466
118	166	75	0.59263494655885
118	167	76	0.054285058018287
118	168	77	0.0027706034644499
118	169	78	-0.050128209232353
118	170	79	0.062634729119019
118	171	80	-0.075924052584451
118	172	81	0.013176059762481
118	173	82	0.089412107851823
118	174	83	-0.027294723105152
118	175	84	-0.041846882058307
118	176	85	-0.040491065594834
118	177	86	0.1097794379713
118	178	87	-0.068199357776901
118	179	88	-0.047540850744118
118	180	89	0.06903351661982
118	181	90	0.032535049447326
118	182	91	-0.070158187691122
118	183	92	0.029388548589777
118	184	93	-1.8757059074481
118	185	94	-0.9258559318423
119	163	72	4.1959838790125
119	164	73	4.9337141016577
119	165	74	6.1139389675705
119	166	75	3.1802109976683
119	167	76	1.8480374430506
119	168	77	1.7196341081864
119	169	78	1.5842237541346
119	170	79	1.8703075779173
119	171	80	1.5193220070009
119	172	81	1.7415501691917
119	173	82	1.9399222969325
119	174	83	1.645395562495
119	175	84	1.6061704388764
119	176	85	1.6067951515463
119	177	86	1.9909966746953
119	178	87	1.5406131955875
119	179	88	1.588914106939
119	180	89	1.8844244174704
119	181	90	1.7961302413889
119	182	91	1.5347526630244
119	183	92	1.7847829102436
119	184	93	0.973
119	185	94	0.973
120	164	73	2414.8769514603
120	165	74	2411.9119199329
120	166	75	2407.298265514
120	167	76	2402.4443862444
120	168	77	2396.2601480235
120	169	78	2388.6069567787
120	170	79	2379.616833211
120	171	80	2370.4989479294
120	172	81	2361.4831209757
120	173	82	2352.8745644127
120	174	83	2344.584524505
120	175	84	2337.3469447539
120	176	85	2334.0507973665
120	177	86	2337.7727678836
120	178	87	2346.1215699003
120	179	88	2354.0427688364
120	180	89	2362.1722437108
120	181	90	2372.5817572308
120	182	91	2382.9743972272
120	183	92	2393.3520429343
120	184	93	2403.5173871535
120	185	94	2411.6344785336
121	164	73	1578.4505975069
121	165	74	1579.5393416099
121	166	75	1581.4153582221
121	167	76	1586.3316692254
121	168	77	1592.5954505689
121	169	78	1600.3470789557
121	170	79	1609.4528356018
121	171	80	1618.6879972629
121	172	81	1627.8197878981
121	173	82	1636.5390697354
121	174	83	1644.9357380811
121	175	84	1653.7907983502
121	176	85	1664.1240785467
121	177	86	1673.6459122086
121	178	87	1680.4730583178
121	179	88	1687.6165939225
121	180	89	1694.1487718867
121	181	90	1695.7046654029
121	182	91	1697.0791843673
121	183	92	1698.1469608499
121	184	93	1699.1081620287
121	185	94	1699.8756872239
122	165	74	4.0735588402093
122	166	75	5.8290612863471
122	167	76	7.862662603839
122	168	77	9.6879727271526
122	169	78	11.944467225839
122	170	79	12.953456134841
122	171	80	12.998777343629
122	172	81	12.605227840698
122	173	82	12.014084930552
122	174	83	11.584700541917
122	175	84	11.358179795498
122	176	85	11.081834647454
122	177	86	10.873275918259
122	178	87	10.736084915775
122	179	88	10.63591405961
122	180	89	10.523848222295
122	181	90	10.526772059941
122	182	91	10.452888306051
122	183	92	10.51179650067
122	184	93	9.3790595169786
122	185	94	8.004374790515
123	166	75	1.7555024461378
123	167	76	2.0336013174918
123	168	77	1.8253101233137
123	169	78	2.2564944986859
123	170	79	1.0089889090025
123	171	80	0.045321208788081
123	172	81	-0.39354950293097
123	173	82	-0.59114291014626
123	174	83	-0.42938438863522
123	175	84	-0.22652074641895
123	176	85	-0.27634514804333
123	177	86	-0.20855872919588
123	178	87	-0.13719100248404
123	179	88	-0.10017085616436
123	180	89	-0.11206583731538
123	181	90	0.0029238376466658
123	182	91	-0.073883753890836
123	183	92	0.058908194619304
123	184	93	-1.1327369836913
123	185	94	-1.3746847264637
124	166	75	3.8756268936732
124	167	76	5.3876730590065
124	168	77	5.9230829630863
124	169	78	8.3392083846763
124	170	79	5.0855033372062
124	171	80	2.0819381521331
124	172	81	0.973
124	173	82	0.973
124	174	83	0.973
124	175	84	1.1732211916124
124	176	85	0.973
124	177	86	1.2067626787784
124	178	87	1.3872581391992
124	179	88	1.4774598654094
124	180	89	1.4411141705942
124	181	90	1.7329893104806
124	182	91	1.5336304471824
124	183	92	1.8736246631636
124	184	93	0.973
124	185	94	0.973
125	167	76	2414.8732395561
125	168	77	2411.9082769358
125	169	78	2407.1655617389
125	170	79	2402.128447905
125	171	80	2395.6944575682
125	172	81	2387.9337748789
125	173	82	2378.7673655167
125	174	83	2368.9823548129
125	175	84	2359.2122518424
125	176	85	2349.4316794267
125	177	86	2340.0865105919
125	178	87	2334.4174806303
125	179	88	2337.3964307201
125	180	89	2346.779458549
125	181	90	2355.4684120667
125	182	91	2364.8614375427
125	183	92	2375.8768930668
125	184	93	2386.6608137578
125	185	94	2395.9118711601
126	167	76	1578.4519604994
126	168	77	1579.5406792993
126	169	78	1581.5497688642
126	170	79	1586.6516712382
126	171	80	1593.1684170682
126	172	81	1601.0289194789
126	173	82	1610.3132293485
126	174	83	1620.224097156
126	175	84	1630.1198654827
126	176	85	1640.0262379153
126	177	86	1650.2837276859
126	178	87	1661.9157696376
126	179	88	1673.341997317
126	180	89	1681.0663587796
126	181	90	1688.9022746962
126	182	91	1694.5507214339
126	183	92	1696.1971841427
126	184	93	1697.5142604476
126	185	94	1698.389009703
127	168	77	4.0635240824116
127	169	78	6.1144633837571
127	170	79	8.1038544815257
127	171	80	10.046968652414
127	172	81	11.926067483762
127	173	82	13.892129573808
127	174	83	13.936045407304
127	175	84	13.893183273086
127	176	85	13.889124961388
127	177	86	13.833042053432
127	178	87	13.039664782253
127	179	88	12.451307082409
127	180	89	11.996588498561
127	181	90	11.530198338915
127	182	91	11.235030325332
127	183	92	10.984342136566
127	184	93	10.439727170964
127	185	94	8.8718913847214
128	169	78	2.0509393013455
128	170	79	1.9893910977687
128	171	80	1.9431141708884
128	172	81	1.8790988313477
128	173	82	1.9660620900462
128	174	83	0.043915833495557
128	175	84	-0.042862134217286
128	176	85	-0.0040583116980262
128	177	86	-0.056082907956462
128	178	87	-0.79337727117912
128	179	88	-0.5883576998438
128	180	89	-0.45471858384756
128	181	90	-0.46639015964645
128	182	91	-0.29516801358278
128	183	92	-0.2506881887658
128	184	93	-0.5446149656022
128	185	94	-1.5678357862427
129	169	78	4.4483142439603
129	170	79	5.4354323508198
129	171	80	6.3932525708783
129	172	81	7.2428843983977
129	173	82	8.6102118406059
129	174	83	2.1797995320176
129	175	84	1.884423361701
129	176	85	2.0139397067959
129	177	86	1.8348652346028
129	178	87	0.973
129	179	88	0.973
129	180	89	0.973
129	181	90	0.973
129	182	91	0.973
129	183	92	0.973
129	184	93	0.973
129	185	94	0.973
130	170	79	2414.8461739381
130	171	80	2411.9468780267
130	172	81	2407.2557718946
130	173	82	2402.3132644872
130	174	83	2396.0984851476
130	175	84	2388.637281624
130	176	85	2379.8467096724
130	177	86	2370.3468173424
130	178	87	2360.8653239175
130	179	88	2351.3807753129
130	180	89	2342.0413825306
130	181	90	2334.9106088879
130	182	91	2335.806685818
130	183	92	2346.1647764894
130	184	93	2356.1929522194
130	185	94	2367.8342028816
131	170	79	1578.4618988531
131	171	80	1579.5265051797
131	172	81	1581.4583984045
131	173	82	1586.4644775018
131	174	83	1592.7591927908
131	175	84	1600.3163640648
131	176	85	1609.2200024156
131	177	86	1618.8420845894
131	178	87	1628.4455312071
131	179	88	1638.0520723006
131	180	89	1647.7811873443
131	181	90	1658.945959907
131	182	91	1671.8741231887
131	183	92	1680.5120231025
131	184	93	1689.5556831537
131	185	94	1694.9950559661
132	171	80	4.0267229073465
132	172	81	5.9477333564631
132	173	82	7.8212407105433
132	174	83	9.6026732088782
132	175	84	11.466286668062
132	176	85	13.286947636499
132	177	86	13.562368140693
132	178	87	13.529235902293
132	179	88	13.455384539605
132	180	89	13.491060158082
132	181	90	13.50869829942
132	182	91	13.486902267623
132	183	92	13.544100182424
132	184	93	13.452367220111
132	185	94	13.197152949202
133	172	81	1.9210104491166
133	173	82	1.8735073540802
133	174	83	1.7814324983349
133	175	84	1.8636134591838
133	176	85	1.8206609684369
133	177	86	0.27542050419428
133	178	87	-0.033132238399704
133	179	88	-0.073851362688
133	180	89	0.035675618476233
133	181	90	0.017638141338248
133	182	91	-0.021796031796839
133	183	92	0.057197914801073
133	184	93	-0.091732962313108
133	185	94	-0.2552142709088
134	172	81	4.1699391246736
134	173	82	5.0629039791787
134	174	83	5.7777020757503
134	175	84	6.9522613836103
134	176	85	7.7976945860273
134	177	86	2.8949203803963
134	178	87	1.8833876959034
134	179	88	1.7446470970948
134	180	89	2.1036379544754
134	181	90	2.0468085785174
134	182	91	1.9163893625158
134	183	92	2.1795901060915
134	184	93	1.6864313721965
134	185	94	1.1472491504976
135	173	82	2414.8840517174
135	174	83	2412.0108083608
135	175	84	2407.4277382374
135	176	85	2402.5740833235
135	177	86	2396.4932427702
135	178	87	2389.0606667105
135	179	88	2380.2840013043
135	180	89	2370.5628811797
135	181	90	2360.7775907384
135	182	91	2350.9979958944
135	183	92	2341.4452241245
135	184	93	2334.6822450395
135	185	94	2337.1085663075
136	173	82	1578.4479903299
136	174	83	1579.5030302955
136	175	84	1581.2842201898
136	176	85	1586.2003039522
136	177	86	1592.3593577035
136	178	87	1599.8875332996
136	179	88	1608.7770862356
136	180	89	1618.6232416881
136	181	90	1628.5343928309
136	182	91	1638.4397751177
136	183	92	1648.5443628915
136	184	93	1660.3212556215
136	185	94	1673.1095294924
137	174	83	3.8169569386458
137	175	84	5.8201201644269
137	176	85	7.6568561983863
137	177	86	9.4728654203107
137	178	87	11.482040745815
137	179	88	13.28880034773
137	180	89	13.928496107168
137	181	90	13.959875884824
137	182	91	13.889444849875
137	183	92	13.92365738506
137	184	93	13.981699167432
137	185	94	13.93769388142
138	175	84	2.0031632257812
138	176	85	1.8367360339593
138	177	86	1.8160092219245
138	178	87	2.009175325504
138	179	88	1.8067596019153
138	180	89	0.63969575943801
138	181	90	0.031379777656403
138	182	91	-0.070431034949143
138	183	92	0.034212535184343
138	184	93	0.058041782372165
138	185	94	-0.044005286011378
139	175	84	4.2187098686395
139	176	85	4.910169108938
139	177	86	5.791375069684
139	178	87	7.3634665133753
139	179	88	7.7541670228011
139	180	89	4.1788440727956
139	181	90	2.1403107369706
139	182	91	1.7917987802914
139	183	92	2.1458442449271
139	184	93	2.2325490149334
139	185	94	1.8846595852561
140	176	85	2414.8736667775
140	177	86	2411.9596294151
140	178	87	2407.2080569622
140	179	88	2402.1523542702
140	180	89	2395.9190397914
140	181	90	2388.3765358754
140	182	91	2379.4748098332
140	183	92	2369.6962625302
140	184	93	2359.9308093331
140	185	94	2350.1364718492
141	176	85	1578.4518036256
141	177	86	1579.5218229368
141	178	87	1581.5067270575
141	179	88	1586.6274573831
141	180	89	1592.9409462158
141	181	90	1600.5804635864
141	182	91	1609.5966857178
141	183	92	1619.5010069897
141	184	93	1629.3920657374
141	185	94	1639.3123802878
142	177	86	4.0343364698305
142	178	87	6.1070091192196
142	179	88	7.9887447326775
142	180	89	9.6134468203811
142	181	90	11.695927346992
142	182	91	13.549136951841
142	183	92	13.891744130468
142	184	93	13.983072519409
142	185	94	13.933561631758
143	178	87	2.0726726493891
143	179	88	1.8817356134579
143	180	89	1.6247020877036
143	181	90	2.0824805266107
143	182	91	1.8532096048491
143	183	92	0.34260717862705
143	184	93	0.091328388941474
143	185	94	-0.049510887651705
144	178	87	4.476179949182
144	179	88	5.1653576997334
144	180	89	5.4200034164505
144	181	90	7.6919386656592
144	182	91	8.0447510818254
144	183	92	3.1748085237727
144	184	93	2.3448821042799
144	185	94	1.8657939236033
145	179	88	2414.8836325099
145	180	89	2411.986930697
145	181	90	2407.369780679
145	182	91	2402.59750627
145	183	92	2396.4303103612
145	184	93	2388.852558142
145	185	94	2379.8589329049
146	179	88	1578.4481442608
146	180	89	1579.5117980484
146	181	90	1581.3429232119
146	182	91	1586.1765797343
146	183	92	1592.4230995635
146	184	93	1600.0983186094
146	185	94	1609.2076219646
147	180	89	4.0013211675714
147	181	90	5.8143858679225
147	182	91	7.5613634765687
147	183	92	9.7458537510484
147	184	93	11.704442393056
147	185	94	13.710967943585
148	181	90	1.8130647003511
148	182	91	1.7469776086463
148	183	92	2.1844902744796
148	184	93	1.9585886420077
148	185	94	2.0065255505289
149	181	90	3.9492323757996
149	182	91	4.6981943303404
149	183	92	6.7964762074918
149	184	93	7.3474754039101
149	185	94	8.6397759745869
150	182	91	2414.8606245739
150	183	92	2411.8764565148
150	184	93	2407.2247922372
150	185	94	2402.2329132988
151	182	91	1578.4565926548
151	183	92	1579.5523635913
151	184	93	1581.4897765294
151	185	94	1586.5458621858
152	183	92	4.0929231651139
152	184	93	5.9906896421535
152	185	94	7.9514762463106
153	184	93	1.8977664770395
153	185	94	1.9607866041572
154	184	93	4.158764086306
154	185	94	5.2974884507475
155	185	94	2414.8345383538
156	185	94	1578.4661713783

