file 203030 1692789598                                          
version 2
run Default-0-20230823-08:19:34-3726
attr configname Default
attr datetime 20230823-08:19:34
attr experiment Default
attr inifile omnetpp.ini
attr iterationvars ""
attr iterationvarsf ""
attr measurement ""
attr network RSUExampleScenario
attr processid 3726
attr repetition 0
attr replication #0
attr resultdir results
attr runnumber 0
attr seedset 0
param *.playgroundSizeX 2500m
param *.playgroundSizeY 2500m
param *.playgroundSizeZ 50m
param *.annotations.draw true
param *.obstacles.obstacles "xmldoc(\"config.xml\", \"//AnalogueModel[@type='SimpleObstacleShadowing']/obstacles\")"
param *.manager.updateInterval 1s
param *.manager.host "\"localhost\""
param *.manager.port 9999
param *.manager.autoShutdown true
param *.manager.launchConfig "xmldoc(\"erlangen.launchd.xml\")"
param *.rsu[0].mobility.x 2000
param *.rsu[0].mobility.y 2000
param *.rsu[0].mobility.z 3
param *.rsu[*].applType "\"TraCIDemoRSU11p\""
param *.rsu[*].appl.headerLength "80 bit"
param *.rsu[*].appl.sendBeacons false
param *.rsu[*].appl.dataOnSch false
param *.rsu[*].appl.beaconInterval 1s
param *.rsu[*].appl.beaconUserPriority 7
param *.rsu[*].appl.dataUserPriority 5
param *.rsu[*].nic.phy80211p.antennaOffsetZ "0 m"
param *.connectionManager.sendDirect true
param *.connectionManager.maxInterfDist 2600m
param *.connectionManager.drawMaxIntfDist false
param *.**.nic.mac1609_4.useServiceChannel false
param *.**.nic.mac1609_4.txPower 20mW
param *.**.nic.mac1609_4.bitrate 6Mbps
param *.**.nic.phy80211p.minPowerLevel -110dBm
param *.**.nic.phy80211p.useNoiseFloor true
param *.**.nic.phy80211p.noiseFloor -98dBm
param *.**.nic.phy80211p.decider "xmldoc(\"config.xml\")"
param *.**.nic.phy80211p.analogueModels "xmldoc(\"config.xml\")"
param *.**.nic.phy80211p.usePropagationDelay true
param *.**.nic.phy80211p.antenna "xmldoc(\"antenna.xml\", \"/root/Antenna[@id='monopole']\")"
param *.node[*].nic.phy80211p.antennaOffsetY "0 m"
param *.node[*].nic.phy80211p.antennaOffsetZ "1.895 m"
param *.node[*].applType "\"TraCIDemo11p\""
param *.node[*].appl.headerLength "80 bit"
param *.node[*].appl.sendBeacons false
param *.node[*].appl.dataOnSch false
param *.node[*].appl.beaconInterval 1s
param *.node[*].veinsmobility.x 0
param *.node[*].veinsmobility.y 0
param *.node[*].veinsmobility.z 0
param *.node[*].veinsmobility.setHostSpeed false

vector 0 RSUExampleScenario.node[0].veinsmobility posx ETV
vector 1 RSUExampleScenario.node[0].veinsmobility posy ETV
vector 2 RSUExampleScenario.node[0].veinsmobility speed ETV
vector 3 RSUExampleScenario.node[0].veinsmobility acceleration ETV
vector 4 RSUExampleScenario.node[0].veinsmobility co2emission ETV
vector 5 RSUExampleScenario.node[1].veinsmobility posx ETV
vector 6 RSUExampleScenario.node[1].veinsmobility posy ETV
vector 7 RSUExampleScenario.node[1].veinsmobility speed ETV
vector 8 RSUExampleScenario.node[1].veinsmobility acceleration ETV
vector 9 RSUExampleScenario.node[1].veinsmobility co2emission ETV
vector 10 RSUExampleScenario.node[2].veinsmobility posx ETV
vector 11 RSUExampleScenario.node[2].veinsmobility posy ETV
vector 12 RSUExampleScenario.node[2].veinsmobility speed ETV
vector 13 RSUExampleScenario.node[2].veinsmobility acceleration ETV
vector 14 RSUExampleScenario.node[2].veinsmobility co2emission ETV
vector 15 RSUExampleScenario.node[3].veinsmobility posx ETV
vector 16 RSUExampleScenario.node[3].veinsmobility posy ETV
vector 17 RSUExampleScenario.node[3].veinsmobility speed ETV
vector 18 RSUExampleScenario.node[3].veinsmobility acceleration ETV
vector 19 RSUExampleScenario.node[3].veinsmobility co2emission ETV
vector 20 RSUExampleScenario.node[4].veinsmobility posx ETV
vector 21 RSUExampleScenario.node[4].veinsmobility posy ETV
vector 22 RSUExampleScenario.node[4].veinsmobility speed ETV
vector 23 RSUExampleScenario.node[4].veinsmobility acceleration ETV
vector 24 RSUExampleScenario.node[4].veinsmobility co2emission ETV
vector 25 RSUExampleScenario.node[5].veinsmobility posx ETV
vector 26 RSUExampleScenario.node[5].veinsmobility posy ETV
vector 27 RSUExampleScenario.node[5].veinsmobility speed ETV
vector 28 RSUExampleScenario.node[5].veinsmobility acceleration ETV
vector 29 RSUExampleScenario.node[5].veinsmobility co2emission ETV
vector 30 RSUExampleScenario.node[6].veinsmobility posx ETV
vector 31 RSUExampleScenario.node[6].veinsmobility posy ETV
vector 32 RSUExampleScenario.node[6].veinsmobility speed ETV
vector 33 RSUExampleScenario.node[6].veinsmobility acceleration ETV
vector 34 RSUExampleScenario.node[6].veinsmobility co2emission ETV
vector 35 RSUExampleScenario.node[7].veinsmobility posx ETV
vector 36 RSUExampleScenario.node[7].veinsmobility posy ETV
vector 37 RSUExampleScenario.node[7].veinsmobility speed ETV
vector 38 RSUExampleScenario.node[7].veinsmobility acceleration ETV
vector 39 RSUExampleScenario.node[7].veinsmobility co2emission ETV
vector 40 RSUExampleScenario.node[8].veinsmobility posx ETV
vector 41 RSUExampleScenario.node[8].veinsmobility posy ETV
vector 42 RSUExampleScenario.node[8].veinsmobility speed ETV
vector 43 RSUExampleScenario.node[8].veinsmobility acceleration ETV
vector 44 RSUExampleScenario.node[8].veinsmobility co2emission ETV
vector 45 RSUExampleScenario.node[9].veinsmobility posx ETV
vector 46 RSUExampleScenario.node[9].veinsmobility posy ETV
vector 47 RSUExampleScenario.node[9].veinsmobility speed ETV
vector 48 RSUExampleScenario.node[9].veinsmobility acceleration ETV
vector 49 RSUExampleScenario.node[9].veinsmobility co2emission ETV
vector 50 RSUExampleScenario.node[10].veinsmobility posx ETV
vector 51 RSUExampleScenario.node[10].veinsmobility posy ETV
vector 52 RSUExampleScenario.node[10].veinsmobility speed ETV
vector 53 RSUExampleScenario.node[10].veinsmobility acceleration ETV
vector 54 RSUExampleScenario.node[10].veinsmobility co2emission ETV
vector 55 RSUExampleScenario.node[11].veinsmobility posx ETV
vector 56 RSUExampleScenario.node[11].veinsmobility posy ETV
vector 57 RSUExampleScenario.node[11].veinsmobility speed ETV
vector 58 RSUExampleScenario.node[11].veinsmobility acceleration ETV
vector 59 RSUExampleScenario.node[11].veinsmobility co2emission ETV
vector 60 RSUExampleScenario.node[12].veinsmobility posx ETV
vector 61 RSUExampleScenario.node[12].veinsmobility posy ETV
vector 62 RSUExampleScenario.node[12].veinsmobility speed ETV
vector 63 RSUExampleScenario.node[12].veinsmobility acceleration ETV
vector 64 RSUExampleScenario.node[12].veinsmobility co2emission ETV
vector 65 RSUExampleScenario.node[13].veinsmobility posx ETV
vector 66 RSUExampleScenario.node[13].veinsmobility posy ETV
vector 67 RSUExampleScenario.node[13].veinsmobility speed ETV
vector 68 RSUExampleScenario.node[13].veinsmobility acceleration ETV
vector 69 RSUExampleScenario.node[13].veinsmobility co2emission ETV
vector 70 RSUExampleScenario.node[14].veinsmobility posx ETV
vector 71 RSUExampleScenario.node[14].veinsmobility posy ETV
vector 72 RSUExampleScenario.node[14].veinsmobility speed ETV
vector 73 RSUExampleScenario.node[14].veinsmobility acceleration ETV
vector 74 RSUExampleScenario.node[14].veinsmobility co2emission ETV
vector 75 RSUExampleScenario.node[15].veinsmobility posx ETV
vector 76 RSUExampleScenario.node[15].veinsmobility posy ETV
vector 77 RSUExampleScenario.node[15].veinsmobility speed ETV
vector 78 RSUExampleScenario.node[15].veinsmobility acceleration ETV
vector 79 RSUExampleScenario.node[15].veinsmobility co2emission ETV
vector 80 RSUExampleScenario.node[16].veinsmobility posx ETV
vector 81 RSUExampleScenario.node[16].veinsmobility posy ETV
vector 82 RSUExampleScenario.node[16].veinsmobility speed ETV
vector 83 RSUExampleScenario.node[16].veinsmobility acceleration ETV
vector 84 RSUExampleScenario.node[16].veinsmobility co2emission ETV
vector 85 RSUExampleScenario.node[17].veinsmobility posx ETV
vector 86 RSUExampleScenario.node[17].veinsmobility posy ETV
vector 87 RSUExampleScenario.node[17].veinsmobility speed ETV
vector 88 RSUExampleScenario.node[17].veinsmobility acceleration ETV
vector 89 RSUExampleScenario.node[17].veinsmobility co2emission ETV
vector 90 RSUExampleScenario.node[18].veinsmobility posx ETV
vector 91 RSUExampleScenario.node[18].veinsmobility posy ETV
vector 92 RSUExampleScenario.node[18].veinsmobility speed ETV
vector 93 RSUExampleScenario.node[18].veinsmobility acceleration ETV
vector 94 RSUExampleScenario.node[18].veinsmobility co2emission ETV
vector 95 RSUExampleScenario.node[19].veinsmobility posx ETV
vector 96 RSUExampleScenario.node[19].veinsmobility posy ETV
vector 97 RSUExampleScenario.node[19].veinsmobility speed ETV
vector 98 RSUExampleScenario.node[19].veinsmobility acceleration ETV
vector 99 RSUExampleScenario.node[19].veinsmobility co2emission ETV
vector 100 RSUExampleScenario.node[20].veinsmobility posx ETV
vector 101 RSUExampleScenario.node[20].veinsmobility posy ETV
vector 102 RSUExampleScenario.node[20].veinsmobility speed ETV
vector 103 RSUExampleScenario.node[20].veinsmobility acceleration ETV
vector 104 RSUExampleScenario.node[20].veinsmobility co2emission ETV
vector 105 RSUExampleScenario.node[21].veinsmobility posx ETV
vector 106 RSUExampleScenario.node[21].veinsmobility posy ETV
vector 107 RSUExampleScenario.node[21].veinsmobility speed ETV
vector 108 RSUExampleScenario.node[21].veinsmobility acceleration ETV
vector 109 RSUExampleScenario.node[21].veinsmobility co2emission ETV
vector 110 RSUExampleScenario.node[22].veinsmobility posx ETV
vector 111 RSUExampleScenario.node[22].veinsmobility posy ETV
vector 112 RSUExampleScenario.node[22].veinsmobility speed ETV
vector 113 RSUExampleScenario.node[22].veinsmobility acceleration ETV
vector 114 RSUExampleScenario.node[22].veinsmobility co2emission ETV
vector 115 RSUExampleScenario.node[23].veinsmobility posx ETV
vector 116 RSUExampleScenario.node[23].veinsmobility posy ETV
vector 117 RSUExampleScenario.node[23].veinsmobility speed ETV
vector 118 RSUExampleScenario.node[23].veinsmobility acceleration ETV
vector 119 RSUExampleScenario.node[23].veinsmobility co2emission ETV
vector 120 RSUExampleScenario.node[24].veinsmobility posx ETV
vector 121 RSUExampleScenario.node[24].veinsmobility posy ETV
vector 122 RSUExampleScenario.node[24].veinsmobility speed ETV
vector 123 RSUExampleScenario.node[24].veinsmobility acceleration ETV
vector 124 RSUExampleScenario.node[24].veinsmobility co2emission ETV
vector 125 RSUExampleScenario.node[25].veinsmobility posx ETV
vector 126 RSUExampleScenario.node[25].veinsmobility posy ETV
vector 127 RSUExampleScenario.node[25].veinsmobility speed ETV
vector 128 RSUExampleScenario.node[25].veinsmobility acceleration ETV
vector 129 RSUExampleScenario.node[25].veinsmobility co2emission ETV
vector 130 RSUExampleScenario.node[26].veinsmobility posx ETV
vector 131 RSUExampleScenario.node[26].veinsmobility posy ETV
vector 132 RSUExampleScenario.node[26].veinsmobility speed ETV
vector 133 RSUExampleScenario.node[26].veinsmobility acceleration ETV
vector 134 RSUExampleScenario.node[26].veinsmobility co2emission ETV
vector 135 RSUExampleScenario.node[27].veinsmobility posx ETV
vector 136 RSUExampleScenario.node[27].veinsmobility posy ETV
vector 137 RSUExampleScenario.node[27].veinsmobility speed ETV
vector 138 RSUExampleScenario.node[27].veinsmobility acceleration ETV
vector 139 RSUExampleScenario.node[27].veinsmobility co2emission ETV
vector 140 RSUExampleScenario.node[28].veinsmobility posx ETV
vector 141 RSUExampleScenario.node[28].veinsmobility posy ETV
vector 142 RSUExampleScenario.node[28].veinsmobility speed ETV
vector 143 RSUExampleScenario.node[28].veinsmobility acceleration ETV
vector 144 RSUExampleScenario.node[28].veinsmobility co2emission ETV
vector 145 RSUExampleScenario.node[29].veinsmobility posx ETV
vector 146 RSUExampleScenario.node[29].veinsmobility posy ETV
vector 147 RSUExampleScenario.node[29].veinsmobility speed ETV
vector 148 RSUExampleScenario.node[29].veinsmobility acceleration ETV
vector 149 RSUExampleScenario.node[29].veinsmobility co2emission ETV
vector 150 RSUExampleScenario.node[30].veinsmobility posx ETV
vector 151 RSUExampleScenario.node[30].veinsmobility posy ETV
vector 152 RSUExampleScenario.node[30].veinsmobility speed ETV
vector 153 RSUExampleScenario.node[30].veinsmobility acceleration ETV
vector 154 RSUExampleScenario.node[30].veinsmobility co2emission ETV
vector 155 RSUExampleScenario.node[31].veinsmobility posx ETV
vector 156 RSUExampleScenario.node[31].veinsmobility posy ETV
0	12405 2258 2 185 1 94 94 1947.8354978411 2450.6248001783 216391.73635924 500507843.39294
1	14663 2262 2 185 1 94 94 1578.4613427464 2120.9360540062 179767.73087913 346792823.40843
2	16925 2236 3 185 2 94 93 4.1061966058897 13.999815066161 1223.8274241012 16481.319323697
3	19161 2389 4 185 3 94 92 -4.5 2.2078255666373 9.8075683807529 97.578972753654
4	21550 2179 4 185 3 94 92 0.973 8.9023657158011 241.09167892156 897.04282303118
5	23729 2194 5 185 4 94 91 1980.1967867191 2450.4780716181 210594.89912787 489340036.16416
6	25923 2190 5 185 4 94 91 1578.4506684253 2120.5707901428 174078.67181448 336013973.77675
7	28113 2170 6 185 5 94 90 4.0332649588119 13.999323605334 1179.6817116692 15837.941203049
8	30283 2342 7 185 6 94 89 -4.4892687861132 2.0988350649318 9.8966705516726 86.764159141572
9	32625 2104 7 185 6 94 89 0.973 8.7525284671264 230.60658501921 856.60126068336
10	34729 2212 8 185 7 94 88 2008.3179219114 2450.659299592 204553.5417857 477143932.28205
11	36941 2206 8 185 7 94 88 1578.4476927174 2120.9589145361 168362.61282458 325112249.29741
12	39147 2191 9 185 8 94 87 3.930963162637 13.997537077854 1140.1094958821 15293.554305858
13	41338 2352 10 185 9 94 86 -4.4962264973393 2.0878022219194 9.9650174441755 86.243795803731
14	43690 2112 10 185 9 94 86 0.973 8.2469806235914 224.70570957668 837.0845650034
15	45802 2143 11 185 10 94 85 2038.1078835877 2450.5176811377 198463.78863849 464765615.49927
16	47945 2148 11 185 10 94 85 1578.4548774119 2120.90069908 162572.71590683 313923779.41341
17	50093 2124 12 185 11 94 84 4.0076977833542 13.999869057706 1098.8311115599 14731.989785997
18	52217 2261 13 185 12 94 83 -4.5 2.1600366940722 9.868690657672 93.663332260245
19	54478 2032 13 185 12 94 83 0.973 8.3694083781091 221.32377675002 857.87189847925
20	56510 2074 14 185 13 94 82 2082.3479541944 2450.2645866362 192825.08153482 454427470.73113
21	58584 2068 14 185 13 94 82 1578.4413889889 2120.7883864809 156021.44024672 299920690.08401
22	60652 2050 15 185 14 94 81 4.1202440707026 13.992288785644 1034.6081634337 13563.809828019
23	62702 2196 16 185 15 94 80 -4.4202670209802 2.2053875824949 9.856801171376 82.479832914681
24	64898 1983 16 185 15 94 80 0.973 8.3105242583869 209.21924544091 771.15869272251
25	66881 1994 17 185 16 94 79 2105.2889673712 2450.2291497608 186327.9697044 440311253.91756
26	68875 1994 17 185 16 94 79 1578.4544820301 2120.7722106203 150378.87668856 289217967.07548
27	70869 1965 18 185 17 94 78 4.11254450365 13.998108282317 1000.9340277915 13229.24623784
28	72834 2099 19 185 18 94 77 -4.1476450008758 2.2240570376068 9.8006989130282 89.666979923702
29	74933 1862 19 185 18 94 77 0.973 8.8530434321966 208.86663769622 840.97694499554
30	76795 1926 20 185 19 94 76 2130.7910450455 2450.4280289282 179993.22293019 426932630.69893
31	78721 1923 20 185 19 94 76 1578.4572625495 2120.8566767089 144110.90602555 276185608.74731
32	80644 1892 21 185 20 94 75 4.067372106413 13.999156328384 960.93920608243 12673.433681133
33	82536 2018 22 185 21 94 74 -4.5 2.4234314252366 6.7056994750853 90.74440736898
34	84554 1803 22 185 21 94 74 0.973 7.9969762628647 190.53776830634 701.92643455646
35	86357 1845 23 185 22 94 73 2219.4145675272 2450.4365012295 174819.47553806 418903534.11321
36	88202 1849 23 185 22 94 73 1578.4561478766 2120.6614999305 136112.81698066 256513886.44227
37	90051 1825 24 185 23 94 72 4.0608742667126 13.999091608806 862.57490108298 10609.424755552
38	91876 1966 25 185 24 94 71 -4.094616017928 2.2555459074327 9.9193252659616 43.567622451572
39	93842 1784 25 185 24 94 71 0.973 7.8139621935621 165.1913423242 510.05958883388
40	95626 1770 26 185 25 94 70 2238.4612804594 2450.3239084678 167906.3286679 402953282.38656
41	97396 1775 26 185 25 94 70 1578.4503688179 2120.8279265687 130482.22755573 245791244.83887
42	99171 1744 27 185 26 94 69 4.0643546214392 13.964093556602 842.55763980528 10579.952586444
43	100915 1860 28 185 27 94 68 -2.5356489940785 2.2392650089366 9.896080095538 46.73825638755
44	102775 1639 28 185 27 94 68 0.973 8.1642209683009 165.49763063952 600.55500829703
45	104414 1697 29 185 28 94 67 2257.5434217644 2450.5540833102 160965.84401111 386879563.52316
46	106111 1697 29 185 28 94 67 1578.4516975414 2120.7919995487 124784.22113594 234835583.04608
47	107808 1671 30 185 29 94 66 3.8828872453123 13.97994910137 823.64651598448 10585.628009209
48	109479 1766 31 185 30 94 65 -2.1823455372089 2.1636936872965 10.008473495364 47.646516568194
49	111245 1579 31 185 30 94 65 0.973 8.0769545765064 163.95421209317 610.41139943727
50	112824 1619 32 185 31 94 64 2276.6883077159 2450.3828549772 153942.32989759 370417326.45779
51	114443 1621 32 185 31 94 64 1578.4486005865 2120.7039867258 118976.63289349 223483916.41119
52	116064 1592 33 185 32 94 63 4.1947202222332 13.991812187003 804.26148692934 10555.635161057
53	117656 1693 34 185 33 94 62 -3.1158763178945 2.2461710704397 9.7290552930764 53.457130580949
54	119349 1525 34 185 33 94 62 0.973 8.8976355453378 162.61609919276 628.25249399551
55	120874 1547 35 185 34 94 61 2306.1466805901 2450.2307157078 146924.26619519 353982058.41115
56	122421 1548 35 185 34 94 61 1578.4356359942 2120.7777846977 112697.81602335 210363651.41533
57	123969 1516 36 185 35 94 60 3.8489417596173 13.985598736692 775.26317596878 10288.587911144
58	125485 1629 37 185 36 94 59 -3.7792833418176 2.3961217227788 10.090834024517 52.919581535818
59	127114 1477 37 185 36 94 59 0.973 8.73746890554 154.51739595113 574.13742066195
60	128591 1473 38 185 37 94 58 2333.9421702074 2450.6306422632 139984.74317301 337931948.3439
61	130064 1470 38 185 37 94 58 1578.451217806 2120.9520459101 106162.00752488 196216334.99965
62	131534 1451 39 185 38 94 57 3.9219617499206 13.999378900521 728.22565048276 9581.2099148024
63	132985 1524 40 185 39 94 56 -4.5 2.0558448842494 10.043268239505 51.07046194523
64	134509 1402 40 185 39 94 56 0.973 8.3627117543138 146.68314701748 537.27054892483
65	135911 1398 41 185 40 94 55 2334.8579254844 2450.1499671022 132901.03724312 321205270.05845
66	137309 1390 41 185 40 94 55 1578.4448455973 2120.7260294929 100051.0061838 183671112.96194
67	138699 1372 42 185 41 94 54 4.0161385181755 13.998249822583 693.18971890497 9172.5113281195
68	140071 1459 43 185 42 94 53 -2.3446006342261 2.0804082644917 9.9129847256328 41.456297548499
69	141530 1306 43 185 42 94 53 0.973 8.5606523284014 141.93258330716 538.88995651157
70	142836 1321 44 185 43 94 52 2334.4301713972 2450.6330954138 125710.90965153 303971758.90178
71	144157 1321 44 185 43 94 52 1578.4619682319 2116.4327883143 93907.505259342 171005541.44617
72	145478 1300 45 185 44 94 51 3.9992962979057 13.999124200887 658.90748693772 8776.6688638077
73	146778 1376 46 185 45 94 50 -3.8456400924426 2.1980071439291 9.9784243923894 51.586877392881
74	148154 1253 46 185 45 94 50 0.973 8.7718288962126 138.37251284621 559.60184695698
75	149407 1250 47 185 46 94 49 2334.3497222776 2450.6169209509 118421.01474593 286257394.48925
76	150657 1252 47 185 46 94 49 1578.4567965213 2080.7203312591 87590.631748191 157700640.85478
77	151909 1226 48 185 47 94 48 4.1510441398274 13.996701665553 616.97918698761 8192.0000124731
78	153135 1297 49 185 48 94 47 -4.4635479538827 2.0671690396545 9.7579143701282 53.110071050058
79	154432 1168 49 185 48 94 47 0.973 8.0918748703575 131.70277676264 535.68137514635
80	155600 1170 50 185 49 94 46 2334.7865815668 2450.5254289502 111097.95890997 268381854.78422
81	156770 1174 50 185 49 94 46 1578.4441374587 2037.7613228559 81336.050302238 144692626.91502
82	157944 1149 51 185 50 94 45 3.8447853377257 13.992536327657 573.73296777008 7587.4384186141
83	159093 1207 52 185 51 94 44 -4.4674361181588 2.078282451923 10.041873931663 50.893863538054
84	160300 1096 52 185 51 94 44 0.973 8.7472268623497 124.73598580003 505.19094149331
85	161396 1099 53 185 52 94 43 2333.8836589833 2448.6193224444 103337.89670454 248404485.53886
86	162495 1096 53 185 52 94 43 1578.4585047252 1900.3766594874 73546.47109272 126152404.73381
87	163591 1070 54 185 53 94 42 3.8698786158062 12.0609251697 434.81756280905 4631.3141460344
88	164661 1136 55 185 54 94 41 -2.7754211128362 2.0160195135884 8.0764901795461 26.395073937353
89	165797 1034 55 185 54 94 41 0.973 6.7330751485819 93.852153763773 289.75149451683
90	166831 1024 56 185 55 94 40 2334.635949342 2447.3589886957 96102.143930405 230946990.69793
91	167855 1026 56 185 55 94 40 1578.4678993914 1883.0445851218 68249.249304057 116743862.25107
92	168881 1003 57 185 56 94 39 4.0700236807532 12.951351441674 416.28227110495 4598.5624189179
93	169884 1042 58 185 57 94 38 -1.9890481690938 2.3297191780875 7.9434792120224 37.363201452632
94	170926 909 58 185 57 94 38 0.973 8.3363783621892 94.285864886195 391.56151943913
95	171835 945 59 185 58 94 37 2334.0024995889 2446.0807532687 88894.437767771 213622263.86439
96	172780 951 59 185 58 94 37 1578.4570502462 1865.4663273795 62904.020626562 107189401.86242
97	173731 925 60 185 59 94 36 3.8447639940612 13.489648629711 399.57372628465 4631.8019099821
98	174656 956 61 185 60 94 35 -1.7387635858037 2.222100084126 8.2709638367064 37.932084726597
99	175612 792 61 185 60 94 35 0.973 8.3204552480567 91.550561155906 413.30419494851
100	176404 908 62 185 61 94 34 2334.2278371524 2444.7191839583 81652.054324632 196132627.36433
101	177312 906 62 185 61 94 34 1578.4478435991 1846.742064408 57572.805355666 97684180.231904
102	178218 882 63 185 62 94 33 4.018615917157 13.970749160051 381.61889970365 4643.8752444855
103	179100 909 64 185 63 94 32 -2.198287774594 2.1492465194734 8.5083599801599 45.187871817396
104	180009 769 64 185 63 94 32 0.973 8.1667304192483 94.794088720518 464.24524800604
105	180778 831 65 185 64 94 31 2333.8926936223 2442.0659389216 74274.137354562 177995381.14752
106	181609 834 65 185 64 94 31 1578.4634011481 1810.2547130752 52022.106865272 87432009.113565
107	182443 805 67 185 65 94 30 4.2842987557744 13.971978112771 345.19186577677 4141.730151604
108	183248 830 157 185 66 94 29 -2.965684290064 2.279591250075 9.6551743730706 42.160260572112
109	184078 760 157 185 66 94 29 0.973 8.0062312204286 88.964534527895 396.15113286139
110	184838 751 158 185 67 94 28 2334.1342350811 2440.0522935766 67052.848719252 160606763.24704
111	185589 754 158 185 67 94 28 1578.4618975855 1782.5631187661 46780.364920094 78254535.599657
112	186343 724 159 185 68 94 27 4.1832233416825 13.972577105726 317.67849218075 3947.9291749095
113	187067 737 160 185 69 94 26 -2.4922948446457 2.2485749843647 9.7893537640431 47.944185120376
114	187804 660 160 185 69 94 26 0.973 7.8311198804753 88.368155062525 452.5150520882
115	188464 671 161 185 70 94 25 2334.510232391 2425.9976320501 59450.178180949 141392717.49476
116	189135 670 161 185 70 94 25 1578.4517848091 1701.0928027472 41203.018831807 67957243.142089
117	189805 647 162 185 71 94 24 4.0859593419879 10.402252755186 229.79650888199 2262.2331107566
118	190452 664 163 185 72 94 23 -1.8757059074481 1.9185597577179 3.4597902923527 15.347328454908
119	191116 599 163 185 72 94 23 0.973 6.1139389675705 49.57182066459 141.86925981941
120	191715 591 164 185 73 94 22 2334.0507973665 2414.8769514603 52266.023774518 124185367.76215
121	192306 594 164 185 73 94 22 1578.4505975069 1699.8756872239 36199.828797773 59608948.987608
122	192900 563 165 185 74 94 21 4.0735588402093 12.998777343629 215.63799820807 2314.9073917897
123	193463 570 166 185 75 94 20 -1.3746847264637 2.2564944986859 3.9308159503057 20.744040422018
124	194033 480 166 185 75 94 20 0.973 8.3392083846763 48.357093256202 202.43264839829
125	194513 511 167 185 76 94 19 2334.4174806303 2414.8732395561 45113.556718267 107129925.66742
126	195024 510 167 185 76 94 19 1578.4519604994 1698.389009703 31163.236150194 51150429.182088
127	195534 486 168 185 77 94 18 4.0635240824116 13.936045407304 200.24715307261 2363.741578185
128	196020 483 169 185 78 94 17 -1.5678357862427 2.0509393013455 4.8083673023098 23.647646010632
129	196503 378 169 185 78 94 17 0.973 8.6102118406059 47.827123239779 240.09931821474
130	196881 430 170 185 79 94 16 2334.9106088879 2414.8461739381 37966.48809019 90102457.657518
131	197311 431 170 185 79 94 16 1578.4618988531 1694.9950559661 26057.21055997 42461683.542022
132	197742 404 171 185 80 94 15 4.0267229073465 13.562368140693 173.37887414725 2145.9811489534
133	198146 395 172 185 81 94 14 -0.2552142709088 1.9210104491166 9.1704300418558 17.322962190588
134	198541 378 172 185 81 94 14 1.1472491504976 7.7976945860273 47.363562846929 221.71082680669
135	198919 351 173 185 82 94 13 2334.6822450395 2414.8840517174 30898.309095708 73449288.479157
136	199270 351 173 185 82 94 13 1578.4479903299 1673.1095294924 20994.032079648 33916442.276461
137	199621 321 174 185 83 94 12 3.8169569386458 13.981699167432 135.15850709109 1670.6483335664
138	199942 309 175 185 84 94 11 -0.070431034949143 2.009175325504 10.120736942775 18.406949106443
139	200251 295 175 185 84 94 11 1.7917987802914 7.7541670228011 44.411894018612 228.19011922743
140	200546 270 176 185 85 94 10 2350.1364718492 2414.8736667775 23879.727636638 57028696.773844
141	200816 270 176 185 85 94 10 1578.4518036256 1639.3123802878 16017.431359538 25660116.766665
142	201086 243 177 185 86 94 9 4.0343364698305 13.983072519409 94.796979722577 1112.8346737675
143	201329 222 178 185 87 94 8 -0.049510887651705 2.0824805266107 9.8992251619273 18.375840568957
144	201551 215 178 185 87 94 8 1.8657939236033 8.0447510818254 38.183715364507 219.03655275373
145	201766 184 179 185 88 94 7 2379.8589329049 2414.8836325099 16801.979651564 40330471.267965
146	201950 189 179 185 88 94 7 1578.4481442608 1609.2076219646 11127.208485393 17688632.775013
147	202139 162 180 185 89 94 6 4.0013211675714 13.710967943585 52.538334599752 526.95815075114
148	202301 135 181 185 90 94 5 1.7469776086463 2.1844902744796 9.7096467760135 18.973346385593
149	202436 135 181 185 90 94 5 3.9492323757996 8.6397759745869 31.431154292129 212.49267886482
150	202571 108 182 185 91 94 4 2402.2329132988 2414.8606245739 9636.1947866246 23214154.047705
151	202679 108 182 185 91 94 4 1578.4565926548 1586.5458621858 6326.0445949612 10004748.570308
152	202787 81 183 185 92 94 3 4.0929231651139 7.9514762463106 18.035089053578 115.86635691977
153	202868 54 184 185 93 94 2 1.8977664770395 1.9607866041572 3.8585530811967 7.4462017084173
154	202922 53 184 185 93 94 2 4.158764086306 5.2974884507475 9.4562525370534 45.358702611351
155	202975 27 185 185 94 94 1 2414.8345383538 2414.8345383538 2414.8345383538 5831425.8476266
156	203002 27 185 185 94 94 1 1578.4661713783 1578.4661713783 1578.4661713783 2491555.4541856

