version 2
run Default-0-20230823-13:55:13-7698
attr configname Default
attr datetime 20230823-13:55:13
attr experiment Default
attr inifile omnetpp.ini
attr iterationvars ""
attr iterationvarsf ""
attr measurement ""
attr network RSUExampleScenario
attr processid 7698
attr repetition 0
attr replication #0
attr resultdir results
attr runnumber 0
attr seedset 0
param *.playgroundSizeX 2500m
param *.playgroundSizeY 2500m
param *.playgroundSizeZ 50m
param *.annotations.draw true
param *.obstacles.obstacles "xmldoc(\"config.xml\", \"//AnalogueModel[@type='SimpleObstacleShadowing']/obstacles\")"
param *.manager.updateInterval 1s
param *.manager.host "\"localhost\""
param *.manager.port 9999
param *.manager.autoShutdown true
param *.manager.launchConfig "xmldoc(\"erlangen.launchd.xml\")"
param *.rsu[0].mobility.x 2000
param *.rsu[0].mobility.y 2000
param *.rsu[0].mobility.z 3
param *.rsu[*].applType "\"TraCIDemoRSU11p\""
param *.rsu[*].appl.headerLength "80 bit"
param *.rsu[*].appl.sendBeacons false
param *.rsu[*].appl.dataOnSch false
param *.rsu[*].appl.beaconInterval 1s
param *.rsu[*].appl.beaconUserPriority 7
param *.rsu[*].appl.dataUserPriority 5
param *.rsu[*].nic.phy80211p.antennaOffsetZ "0 m"
param *.connectionManager.sendDirect true
param *.connectionManager.maxInterfDist 2600m
param *.connectionManager.drawMaxIntfDist false
param *.**.nic.mac1609_4.useServiceChannel false
param *.**.nic.mac1609_4.txPower 20mW
param *.**.nic.mac1609_4.bitrate 6Mbps
param *.**.nic.phy80211p.minPowerLevel -110dBm
param *.**.nic.phy80211p.useNoiseFloor true
param *.**.nic.phy80211p.noiseFloor -98dBm
param *.**.nic.phy80211p.decider "xmldoc(\"config.xml\")"
param *.**.nic.phy80211p.analogueModels "xmldoc(\"config.xml\")"
param *.**.nic.phy80211p.usePropagationDelay true
param *.**.nic.phy80211p.antenna "xmldoc(\"antenna.xml\", \"/root/Antenna[@id='monopole']\")"
param *.node[*].nic.phy80211p.antennaOffsetY "0 m"
param *.node[*].nic.phy80211p.antennaOffsetZ "1.895 m"
param *.node[*].applType "\"TraCIDemo11p\""
param *.node[*].appl.headerLength "80 bit"
param *.node[*].appl.sendBeacons false
param *.node[*].appl.dataOnSch false
param *.node[*].appl.beaconInterval 1s
param *.node[*].veinsmobility.x 0
param *.node[*].veinsmobility.y 0
param *.node[*].veinsmobility.z 0
param *.node[*].veinsmobility.setHostSpeed false

vector 0 RSUExampleScenario.node[0].veinsmobility posx ETV
vector 1 RSUExampleScenario.node[0].veinsmobility posy ETV
vector 2 RSUExampleScenario.node[0].veinsmobility speed ETV
vector 3 RSUExampleScenario.node[0].veinsmobility acceleration ETV
vector 4 RSUExampleScenario.node[0].veinsmobility co2emission ETV
vector 5 RSUExampleScenario.node[1].veinsmobility posx ETV
vector 6 RSUExampleScenario.node[1].veinsmobility posy ETV
vector 7 RSUExampleScenario.node[1].veinsmobility speed ETV
vector 8 RSUExampleScenario.node[1].veinsmobility acceleration ETV
vector 9 RSUExampleScenario.node[1].veinsmobility co2emission ETV
vector 10 RSUExampleScenario.node[2].veinsmobility posx ETV
vector 11 RSUExampleScenario.node[2].veinsmobility posy ETV
vector 12 RSUExampleScenario.node[2].veinsmobility speed ETV
vector 13 RSUExampleScenario.node[2].veinsmobility acceleration ETV
vector 14 RSUExampleScenario.node[2].veinsmobility co2emission ETV
vector 15 RSUExampleScenario.node[3].veinsmobility posx ETV
vector 16 RSUExampleScenario.node[3].veinsmobility posy ETV
vector 17 RSUExampleScenario.node[3].veinsmobility speed ETV
vector 18 RSUExampleScenario.node[3].veinsmobility acceleration ETV
vector 19 RSUExampleScenario.node[3].veinsmobility co2emission ETV
vector 20 RSUExampleScenario.node[4].veinsmobility posx ETV
vector 21 RSUExampleScenario.node[4].veinsmobility posy ETV
vector 22 RSUExampleScenario.node[4].veinsmobility speed ETV
vector 23 RSUExampleScenario.node[4].veinsmobility acceleration ETV
vector 24 RSUExampleScenario.node[4].veinsmobility co2emission ETV
vector 25 RSUExampleScenario.node[5].veinsmobility posx ETV
vector 26 RSUExampleScenario.node[5].veinsmobility posy ETV
vector 27 RSUExampleScenario.node[5].veinsmobility speed ETV
vector 28 RSUExampleScenario.node[5].veinsmobility acceleration ETV
vector 29 RSUExampleScenario.node[5].veinsmobility co2emission ETV
vector 30 RSUExampleScenario.node[6].veinsmobility posx ETV
vector 31 RSUExampleScenario.node[6].veinsmobility posy ETV
vector 32 RSUExampleScenario.node[6].veinsmobility speed ETV
vector 33 RSUExampleScenario.node[6].veinsmobility acceleration ETV
vector 34 RSUExampleScenario.node[6].veinsmobility co2emission ETV
vector 35 RSUExampleScenario.node[7].veinsmobility posx ETV
vector 36 RSUExampleScenario.node[7].veinsmobility posy ETV
vector 37 RSUExampleScenario.node[7].veinsmobility speed ETV
vector 38 RSUExampleScenario.node[7].veinsmobility acceleration ETV
vector 39 RSUExampleScenario.node[7].veinsmobility co2emission ETV
vector 40 RSUExampleScenario.node[8].veinsmobility posx ETV
vector 41 RSUExampleScenario.node[8].veinsmobility posy ETV
vector 42 RSUExampleScenario.node[8].veinsmobility speed ETV
vector 43 RSUExampleScenario.node[8].veinsmobility acceleration ETV
vector 44 RSUExampleScenario.node[8].veinsmobility co2emission ETV
vector 45 RSUExampleScenario.node[9].veinsmobility posx ETV
vector 46 RSUExampleScenario.node[9].veinsmobility posy ETV
vector 47 RSUExampleScenario.node[9].veinsmobility speed ETV
vector 48 RSUExampleScenario.node[9].veinsmobility acceleration ETV
vector 49 RSUExampleScenario.node[9].veinsmobility co2emission ETV
vector 50 RSUExampleScenario.node[10].veinsmobility posx ETV
vector 51 RSUExampleScenario.node[10].veinsmobility posy ETV
vector 52 RSUExampleScenario.node[10].veinsmobility speed ETV
vector 53 RSUExampleScenario.node[10].veinsmobility acceleration ETV
vector 54 RSUExampleScenario.node[10].veinsmobility co2emission ETV
vector 55 RSUExampleScenario.node[11].veinsmobility posx ETV
vector 56 RSUExampleScenario.node[11].veinsmobility posy ETV
vector 57 RSUExampleScenario.node[11].veinsmobility speed ETV
vector 58 RSUExampleScenario.node[11].veinsmobility acceleration ETV
vector 59 RSUExampleScenario.node[11].veinsmobility co2emission ETV
vector 60 RSUExampleScenario.node[12].veinsmobility posx ETV
vector 61 RSUExampleScenario.node[12].veinsmobility posy ETV
vector 62 RSUExampleScenario.node[12].veinsmobility speed ETV
vector 63 RSUExampleScenario.node[12].veinsmobility acceleration ETV
vector 64 RSUExampleScenario.node[12].veinsmobility co2emission ETV
vector 65 RSUExampleScenario.node[13].veinsmobility posx ETV
vector 66 RSUExampleScenario.node[13].veinsmobility posy ETV
vector 67 RSUExampleScenario.node[13].veinsmobility speed ETV
vector 68 RSUExampleScenario.node[13].veinsmobility acceleration ETV
vector 69 RSUExampleScenario.node[13].veinsmobility co2emission ETV
vector 70 RSUExampleScenario.node[14].veinsmobility posx ETV
vector 71 RSUExampleScenario.node[14].veinsmobility posy ETV
vector 72 RSUExampleScenario.node[14].veinsmobility speed ETV
vector 73 RSUExampleScenario.node[14].veinsmobility acceleration ETV
vector 74 RSUExampleScenario.node[14].veinsmobility co2emission ETV
vector 75 RSUExampleScenario.node[15].veinsmobility posx ETV
vector 76 RSUExampleScenario.node[15].veinsmobility posy ETV
vector 77 RSUExampleScenario.node[15].veinsmobility speed ETV
vector 78 RSUExampleScenario.node[15].veinsmobility acceleration ETV
vector 79 RSUExampleScenario.node[15].veinsmobility co2emission ETV
vector 80 RSUExampleScenario.node[16].veinsmobility posx ETV
vector 81 RSUExampleScenario.node[16].veinsmobility posy ETV
vector 82 RSUExampleScenario.node[16].veinsmobility speed ETV
vector 83 RSUExampleScenario.node[16].veinsmobility acceleration ETV
vector 84 RSUExampleScenario.node[16].veinsmobility co2emission ETV
vector 85 RSUExampleScenario.node[17].veinsmobility posx ETV
vector 86 RSUExampleScenario.node[17].veinsmobility posy ETV
vector 87 RSUExampleScenario.node[17].veinsmobility speed ETV
vector 88 RSUExampleScenario.node[17].veinsmobility acceleration ETV
vector 89 RSUExampleScenario.node[17].veinsmobility co2emission ETV
vector 90 RSUExampleScenario.node[18].veinsmobility posx ETV
vector 91 RSUExampleScenario.node[18].veinsmobility posy ETV
vector 92 RSUExampleScenario.node[18].veinsmobility speed ETV
vector 93 RSUExampleScenario.node[18].veinsmobility acceleration ETV
vector 94 RSUExampleScenario.node[18].veinsmobility co2emission ETV
vector 95 RSUExampleScenario.node[19].veinsmobility posx ETV
vector 96 RSUExampleScenario.node[19].veinsmobility posy ETV
vector 97 RSUExampleScenario.node[19].veinsmobility speed ETV
vector 98 RSUExampleScenario.node[19].veinsmobility acceleration ETV
vector 99 RSUExampleScenario.node[19].veinsmobility co2emission ETV
vector 100 RSUExampleScenario.node[20].veinsmobility posx ETV
vector 101 RSUExampleScenario.node[20].veinsmobility posy ETV
vector 102 RSUExampleScenario.node[20].veinsmobility speed ETV
vector 103 RSUExampleScenario.node[20].veinsmobility acceleration ETV
vector 104 RSUExampleScenario.node[20].veinsmobility co2emission ETV
vector 105 RSUExampleScenario.node[21].veinsmobility posx ETV
vector 106 RSUExampleScenario.node[21].veinsmobility posy ETV
vector 107 RSUExampleScenario.node[21].veinsmobility speed ETV
vector 108 RSUExampleScenario.node[21].veinsmobility acceleration ETV
vector 109 RSUExampleScenario.node[21].veinsmobility co2emission ETV
vector 110 RSUExampleScenario.node[22].veinsmobility posx ETV
vector 111 RSUExampleScenario.node[22].veinsmobility posy ETV
vector 112 RSUExampleScenario.node[22].veinsmobility speed ETV
vector 113 RSUExampleScenario.node[22].veinsmobility acceleration ETV
vector 114 RSUExampleScenario.node[22].veinsmobility co2emission ETV
vector 115 RSUExampleScenario.node[23].veinsmobility posx ETV
vector 116 RSUExampleScenario.node[23].veinsmobility posy ETV
vector 117 RSUExampleScenario.node[23].veinsmobility speed ETV
vector 118 RSUExampleScenario.node[23].veinsmobility acceleration ETV
vector 119 RSUExampleScenario.node[23].veinsmobility co2emission ETV
vector 120 RSUExampleScenario.node[24].veinsmobility posx ETV
vector 121 RSUExampleScenario.node[24].veinsmobility posy ETV
vector 122 RSUExampleScenario.node[24].veinsmobility speed ETV
vector 123 RSUExampleScenario.node[24].veinsmobility acceleration ETV
vector 124 RSUExampleScenario.node[24].veinsmobility co2emission ETV
vector 125 RSUExampleScenario.node[25].veinsmobility posx ETV
vector 126 RSUExampleScenario.node[25].veinsmobility posy ETV
vector 127 RSUExampleScenario.node[25].veinsmobility speed ETV
vector 128 RSUExampleScenario.node[25].veinsmobility acceleration ETV
vector 129 RSUExampleScenario.node[25].veinsmobility co2emission ETV
vector 130 RSUExampleScenario.node[26].veinsmobility posx ETV
vector 131 RSUExampleScenario.node[26].veinsmobility posy ETV
vector 132 RSUExampleScenario.node[26].veinsmobility speed ETV
vector 133 RSUExampleScenario.node[26].veinsmobility acceleration ETV
vector 134 RSUExampleScenario.node[26].veinsmobility co2emission ETV
vector 135 RSUExampleScenario.node[27].veinsmobility posx ETV
vector 136 RSUExampleScenario.node[27].veinsmobility posy ETV
vector 137 RSUExampleScenario.node[27].veinsmobility speed ETV
vector 138 RSUExampleScenario.node[27].veinsmobility acceleration ETV
vector 139 RSUExampleScenario.node[27].veinsmobility co2emission ETV
vector 140 RSUExampleScenario.node[28].veinsmobility posx ETV
vector 141 RSUExampleScenario.node[28].veinsmobility posy ETV
vector 142 RSUExampleScenario.node[28].veinsmobility speed ETV
vector 143 RSUExampleScenario.node[28].veinsmobility acceleration ETV
vector 144 RSUExampleScenario.node[28].veinsmobility co2emission ETV
vector 145 RSUExampleScenario.node[29].veinsmobility posx ETV
vector 146 RSUExampleScenario.node[29].veinsmobility posy ETV
vector 147 RSUExampleScenario.node[29].veinsmobility speed ETV
vector 148 RSUExampleScenario.node[29].veinsmobility acceleration ETV
vector 149 RSUExampleScenario.node[29].veinsmobility co2emission ETV
vector 150 RSUExampleScenario.node[30].veinsmobility posx ETV
vector 151 RSUExampleScenario.node[30].veinsmobility posy ETV
vector 152 RSUExampleScenario.node[30].veinsmobility speed ETV
vector 153 RSUExampleScenario.node[30].veinsmobility acceleration ETV
vector 154 RSUExampleScenario.node[30].veinsmobility co2emission ETV
vector 155 RSUExampleScenario.node[31].veinsmobility posx ETV
vector 156 RSUExampleScenario.node[31].veinsmobility posy ETV
vector 157 RSUExampleScenario.node[31].veinsmobility speed ETV
vector 158 RSUExampleScenario.node[31].veinsmobility acceleration ETV
vector 159 RSUExampleScenario.node[31].veinsmobility co2emission ETV
vector 160 RSUExampleScenario.node[32].veinsmobility posx ETV
vector 161 RSUExampleScenario.node[32].veinsmobility posy ETV
vector 162 RSUExampleScenario.node[32].veinsmobility speed ETV
vector 163 RSUExampleScenario.node[32].veinsmobility acceleration ETV
vector 164 RSUExampleScenario.node[32].veinsmobility co2emission ETV
vector 165 RSUExampleScenario.node[33].veinsmobility posx ETV
vector 166 RSUExampleScenario.node[33].veinsmobility posy ETV
vector 167 RSUExampleScenario.node[33].veinsmobility speed ETV
vector 168 RSUExampleScenario.node[33].veinsmobility acceleration ETV
vector 169 RSUExampleScenario.node[33].veinsmobility co2emission ETV
vector 170 RSUExampleScenario.node[34].veinsmobility posx ETV
vector 171 RSUExampleScenario.node[34].veinsmobility posy ETV
vector 172 RSUExampleScenario.node[34].veinsmobility speed ETV
vector 173 RSUExampleScenario.node[34].veinsmobility acceleration ETV
vector 174 RSUExampleScenario.node[34].veinsmobility co2emission ETV
vector 175 RSUExampleScenario.node[35].veinsmobility posx ETV
vector 176 RSUExampleScenario.node[35].veinsmobility posy ETV
vector 177 RSUExampleScenario.node[35].veinsmobility speed ETV
vector 178 RSUExampleScenario.node[35].veinsmobility acceleration ETV
vector 179 RSUExampleScenario.node[35].veinsmobility co2emission ETV
vector 180 RSUExampleScenario.node[36].veinsmobility posx ETV
vector 181 RSUExampleScenario.node[36].veinsmobility posy ETV
vector 182 RSUExampleScenario.node[36].veinsmobility speed ETV
vector 183 RSUExampleScenario.node[36].veinsmobility acceleration ETV
vector 184 RSUExampleScenario.node[36].veinsmobility co2emission ETV
vector 185 RSUExampleScenario.node[37].veinsmobility posx ETV
vector 186 RSUExampleScenario.node[37].veinsmobility posy ETV
vector 187 RSUExampleScenario.node[37].veinsmobility speed ETV
vector 188 RSUExampleScenario.node[37].veinsmobility acceleration ETV
vector 189 RSUExampleScenario.node[37].veinsmobility co2emission ETV
vector 190 RSUExampleScenario.node[38].veinsmobility posx ETV
vector 191 RSUExampleScenario.node[38].veinsmobility posy ETV
vector 192 RSUExampleScenario.node[38].veinsmobility speed ETV
vector 193 RSUExampleScenario.node[38].veinsmobility acceleration ETV
vector 194 RSUExampleScenario.node[38].veinsmobility co2emission ETV
vector 195 RSUExampleScenario.node[39].veinsmobility posx ETV
vector 196 RSUExampleScenario.node[39].veinsmobility posy ETV
vector 197 RSUExampleScenario.node[39].veinsmobility speed ETV
vector 198 RSUExampleScenario.node[39].veinsmobility acceleration ETV
vector 199 RSUExampleScenario.node[39].veinsmobility co2emission ETV
vector 200 RSUExampleScenario.node[40].veinsmobility posx ETV
vector 201 RSUExampleScenario.node[40].veinsmobility posy ETV
vector 202 RSUExampleScenario.node[40].veinsmobility speed ETV
vector 203 RSUExampleScenario.node[40].veinsmobility acceleration ETV
vector 204 RSUExampleScenario.node[40].veinsmobility co2emission ETV
vector 205 RSUExampleScenario.node[41].veinsmobility posx ETV
vector 206 RSUExampleScenario.node[41].veinsmobility posy ETV
vector 207 RSUExampleScenario.node[41].veinsmobility speed ETV
vector 208 RSUExampleScenario.node[41].veinsmobility acceleration ETV
vector 209 RSUExampleScenario.node[41].veinsmobility co2emission ETV
vector 210 RSUExampleScenario.node[42].veinsmobility posx ETV
vector 211 RSUExampleScenario.node[42].veinsmobility posy ETV
vector 212 RSUExampleScenario.node[42].veinsmobility speed ETV
vector 213 RSUExampleScenario.node[42].veinsmobility acceleration ETV
vector 214 RSUExampleScenario.node[42].veinsmobility co2emission ETV
vector 215 RSUExampleScenario.node[43].veinsmobility posx ETV
vector 216 RSUExampleScenario.node[43].veinsmobility posy ETV
vector 217 RSUExampleScenario.node[43].veinsmobility speed ETV
vector 218 RSUExampleScenario.node[43].veinsmobility acceleration ETV
vector 219 RSUExampleScenario.node[43].veinsmobility co2emission ETV
vector 220 RSUExampleScenario.node[44].veinsmobility posx ETV
vector 221 RSUExampleScenario.node[44].veinsmobility posy ETV
vector 222 RSUExampleScenario.node[44].veinsmobility speed ETV
vector 223 RSUExampleScenario.node[44].veinsmobility acceleration ETV
vector 224 RSUExampleScenario.node[44].veinsmobility co2emission ETV
vector 225 RSUExampleScenario.node[45].veinsmobility posx ETV
vector 226 RSUExampleScenario.node[45].veinsmobility posy ETV
vector 227 RSUExampleScenario.node[45].veinsmobility speed ETV
vector 228 RSUExampleScenario.node[45].veinsmobility acceleration ETV
vector 229 RSUExampleScenario.node[45].veinsmobility co2emission ETV
vector 230 RSUExampleScenario.node[46].veinsmobility posx ETV
vector 231 RSUExampleScenario.node[46].veinsmobility posy ETV
vector 232 RSUExampleScenario.node[46].veinsmobility speed ETV
vector 233 RSUExampleScenario.node[46].veinsmobility acceleration ETV
vector 234 RSUExampleScenario.node[46].veinsmobility co2emission ETV
vector 235 RSUExampleScenario.node[47].veinsmobility posx ETV
vector 236 RSUExampleScenario.node[47].veinsmobility posy ETV
vector 237 RSUExampleScenario.node[47].veinsmobility speed ETV
vector 238 RSUExampleScenario.node[47].veinsmobility acceleration ETV
vector 239 RSUExampleScenario.node[47].veinsmobility co2emission ETV
vector 240 RSUExampleScenario.node[48].veinsmobility posx ETV
vector 241 RSUExampleScenario.node[48].veinsmobility posy ETV
vector 242 RSUExampleScenario.node[48].veinsmobility speed ETV
vector 243 RSUExampleScenario.node[48].veinsmobility acceleration ETV
vector 244 RSUExampleScenario.node[48].veinsmobility co2emission ETV
vector 245 RSUExampleScenario.node[49].veinsmobility posx ETV
vector 246 RSUExampleScenario.node[49].veinsmobility posy ETV
vector 247 RSUExampleScenario.node[49].veinsmobility speed ETV
vector 248 RSUExampleScenario.node[49].veinsmobility acceleration ETV
vector 249 RSUExampleScenario.node[49].veinsmobility co2emission ETV
vector 250 RSUExampleScenario.node[50].veinsmobility posx ETV
vector 251 RSUExampleScenario.node[50].veinsmobility posy ETV
vector 252 RSUExampleScenario.node[50].veinsmobility speed ETV
vector 253 RSUExampleScenario.node[50].veinsmobility acceleration ETV
vector 254 RSUExampleScenario.node[50].veinsmobility co2emission ETV
vector 255 RSUExampleScenario.node[51].veinsmobility posx ETV
vector 256 RSUExampleScenario.node[51].veinsmobility posy ETV
vector 257 RSUExampleScenario.node[51].veinsmobility speed ETV
vector 258 RSUExampleScenario.node[51].veinsmobility acceleration ETV
vector 259 RSUExampleScenario.node[51].veinsmobility co2emission ETV
vector 260 RSUExampleScenario.node[52].veinsmobility posx ETV
vector 261 RSUExampleScenario.node[52].veinsmobility posy ETV
vector 262 RSUExampleScenario.node[52].veinsmobility speed ETV
vector 263 RSUExampleScenario.node[52].veinsmobility acceleration ETV
vector 264 RSUExampleScenario.node[52].veinsmobility co2emission ETV
vector 265 RSUExampleScenario.node[53].veinsmobility posx ETV
vector 266 RSUExampleScenario.node[53].veinsmobility posy ETV
vector 267 RSUExampleScenario.node[53].veinsmobility speed ETV
vector 268 RSUExampleScenario.node[53].veinsmobility acceleration ETV
vector 269 RSUExampleScenario.node[53].veinsmobility co2emission ETV
vector 270 RSUExampleScenario.node[54].veinsmobility posx ETV
vector 271 RSUExampleScenario.node[54].veinsmobility posy ETV
vector 272 RSUExampleScenario.node[54].veinsmobility speed ETV
vector 273 RSUExampleScenario.node[54].veinsmobility acceleration ETV
vector 274 RSUExampleScenario.node[54].veinsmobility co2emission ETV
vector 275 RSUExampleScenario.node[55].veinsmobility posx ETV
vector 276 RSUExampleScenario.node[55].veinsmobility posy ETV
vector 277 RSUExampleScenario.node[55].veinsmobility speed ETV
vector 278 RSUExampleScenario.node[55].veinsmobility acceleration ETV
vector 279 RSUExampleScenario.node[55].veinsmobility co2emission ETV
vector 280 RSUExampleScenario.node[56].veinsmobility posx ETV
vector 281 RSUExampleScenario.node[56].veinsmobility posy ETV
vector 282 RSUExampleScenario.node[56].veinsmobility speed ETV
vector 283 RSUExampleScenario.node[56].veinsmobility acceleration ETV
vector 284 RSUExampleScenario.node[56].veinsmobility co2emission ETV
vector 285 RSUExampleScenario.node[57].veinsmobility posx ETV
vector 286 RSUExampleScenario.node[57].veinsmobility posy ETV
vector 287 RSUExampleScenario.node[57].veinsmobility speed ETV
vector 288 RSUExampleScenario.node[57].veinsmobility acceleration ETV
vector 289 RSUExampleScenario.node[57].veinsmobility co2emission ETV
vector 290 RSUExampleScenario.node[58].veinsmobility posx ETV
vector 291 RSUExampleScenario.node[58].veinsmobility posy ETV
vector 292 RSUExampleScenario.node[58].veinsmobility speed ETV
vector 293 RSUExampleScenario.node[58].veinsmobility acceleration ETV
vector 294 RSUExampleScenario.node[58].veinsmobility co2emission ETV
vector 295 RSUExampleScenario.node[59].veinsmobility posx ETV
vector 296 RSUExampleScenario.node[59].veinsmobility posy ETV
vector 297 RSUExampleScenario.node[59].veinsmobility speed ETV
vector 298 RSUExampleScenario.node[59].veinsmobility acceleration ETV
vector 299 RSUExampleScenario.node[59].veinsmobility co2emission ETV
vector 300 RSUExampleScenario.node[60].veinsmobility posx ETV
vector 301 RSUExampleScenario.node[60].veinsmobility posy ETV
vector 302 RSUExampleScenario.node[60].veinsmobility speed ETV
vector 303 RSUExampleScenario.node[60].veinsmobility acceleration ETV
vector 304 RSUExampleScenario.node[60].veinsmobility co2emission ETV
vector 305 RSUExampleScenario.node[61].veinsmobility posx ETV
vector 306 RSUExampleScenario.node[61].veinsmobility posy ETV
vector 307 RSUExampleScenario.node[61].veinsmobility speed ETV
vector 308 RSUExampleScenario.node[61].veinsmobility acceleration ETV
vector 309 RSUExampleScenario.node[61].veinsmobility co2emission ETV
vector 310 RSUExampleScenario.node[62].veinsmobility posx ETV
vector 311 RSUExampleScenario.node[62].veinsmobility posy ETV
vector 312 RSUExampleScenario.node[62].veinsmobility speed ETV
vector 313 RSUExampleScenario.node[62].veinsmobility acceleration ETV
vector 314 RSUExampleScenario.node[62].veinsmobility co2emission ETV
vector 315 RSUExampleScenario.node[63].veinsmobility posx ETV
vector 316 RSUExampleScenario.node[63].veinsmobility posy ETV
vector 317 RSUExampleScenario.node[63].veinsmobility speed ETV
vector 318 RSUExampleScenario.node[63].veinsmobility acceleration ETV
vector 319 RSUExampleScenario.node[63].veinsmobility co2emission ETV
vector 320 RSUExampleScenario.node[64].veinsmobility posx ETV
vector 321 RSUExampleScenario.node[64].veinsmobility posy ETV
vector 322 RSUExampleScenario.node[64].veinsmobility speed ETV
vector 323 RSUExampleScenario.node[64].veinsmobility acceleration ETV
vector 324 RSUExampleScenario.node[64].veinsmobility co2emission ETV
vector 325 RSUExampleScenario.node[65].veinsmobility posx ETV
vector 326 RSUExampleScenario.node[65].veinsmobility posy ETV
vector 327 RSUExampleScenario.node[65].veinsmobility speed ETV
vector 328 RSUExampleScenario.node[65].veinsmobility acceleration ETV
vector 329 RSUExampleScenario.node[65].veinsmobility co2emission ETV
vector 330 RSUExampleScenario.node[66].veinsmobility posx ETV
vector 331 RSUExampleScenario.node[66].veinsmobility posy ETV
vector 332 RSUExampleScenario.node[66].veinsmobility speed ETV
0	2	1	2414.8476884116
0	4	2	2411.8243290941
0	18	3	2407.1592244543
0	20	4	2402.288200066
0	39	5	2396.1394374635
0	41	6	2388.6993875942
0	60	7	2379.889221533
0	62	8	2370.1207192459
0	86	9	2360.3141803208
0	88	10	2350.5099475634
0	117	11	2341.0010868867
0	119	12	2334.5620136983
0	148	13	2337.6803779466
0	150	14	2348.3497968862
0	181	15	2358.6961674725
0	183	16	2371.6616533546
0	216	17	2385.4706804305
0	218	18	2399.3588350668
0	251	19	2412.4541998667
0	253	20	2421.4418196582
0	288	21	2428.417609864
0	290	22	2431.468930052
0	327	23	2433.1513403206
0	329	24	2435.1237040944
0	366	25	2437.2173147583
0	368	26	2438.6437980286
0	407	27	2439.5074353185
0	409	28	2440.517813261
0	450	29	2441.5286354903
0	452	30	2442.5392864447
0	493	31	2443.5505626462
0	495	32	2444.5611125134
0	538	33	2445.5724211388
0	540	34	2446.5834693939
0	588	35	2447.5934051003
0	590	36	2448.6036931522
0	635	37	2449.6148620235
0	637	38	2450.6248001783
0	684	39	2449.5880553933
0	686	40	2448.4757357414
0	735	41	2447.3635385588
0	737	42	2446.250303259
0	786	43	2445.1365203297
0	788	44	2444.0235521834
0	839	45	2442.9111769209
0	841	46	2441.7982721732
0	897	47	2440.6856421625
0	899	48	2439.7151308154
0	952	49	2438.7725309408
0	954	50	2437.9056889905
0	1009	51	2432.8785054281
0	1011	52	2422.5273191113
0	1071	53	2409.439604845
0	1073	54	2395.517893619
0	1136	55	2381.592286239
0	1138	56	2367.6659531716
0	1203	57	2353.7601239877
0	1205	58	2339.8337569573
0	1275	59	2325.9069679289
0	1277	60	2311.9542202253
0	1350	61	2298.0325140053
0	1352	62	2284.0857072632
0	1427	63	2270.1754193477
0	1429	64	2256.2378749268
0	1512	65	2242.3725172955
0	1514	66	2228.5568932705
0	1600	67	2214.8035730832
0	1602	68	2201.6130456962
0	1690	69	2188.4247624045
0	1692	70	2175.5107078577
0	1785	71	2163.5018647154
0	1787	72	2152.2359160049
0	1877	73	2144.5614629743
0	1879	74	2138.2558950796
0	1971	75	2131.5955681979
0	1973	76	2123.7056670481
0	2070	77	2114.4870687368
0	2072	78	2104.967243704
0	2169	79	2095.4384303803
0	2171	80	2085.9056783495
0	2273	81	2076.3779145891
0	2275	82	2066.8424239405
0	2388	83	2057.3019868316
0	2390	84	2047.7591241145
0	2506	85	2037.7608240946
0	2508	86	2027.7716043318
0	2623	87	2017.7788433422
0	2625	88	2007.7911366803
0	2745	89	1997.8010467655
0	2747	90	1987.8117551972
0	2870	91	1977.8105066026
0	2872	92	1967.8078011014
0	2997	93	1957.8261436883
0	2999	94	1947.8354978411
0	3129	95	1937.8357170075
0	3131	96	1928.0943876163
0	3264	97	1918.3458898404
0	3266	98	1908.595691517
0	3401	99	1898.860628812
0	3403	100	1889.1253430418
0	3543	101	1879.3899734151
0	3545	102	1869.6541828585
0	3685	103	1859.9138401168
0	3687	104	1850.1927032812
0	3829	105	1840.4627611398
0	3831	106	1830.4943832025
0	3975	107	1820.3899234756
0	3977	108	1810.2821070175
0	4121	109	1800.3072354572
0	4123	110	1790.3538284535
0	4395	111	1780.4116429748
0	4397	112	1770.4645217122
0	4398	113	1760.5038479915
0	4399	114	1750.5548786415
0	4400	115	1740.6057387365
0	4401	116	1730.6509342341
0	4402	117	1720.6987788925
0	4403	118	1710.7568396883
0	4404	119	1700.8018530838
0	4405	120	1690.8717264237
0	4406	121	1680.914710167
0	4407	122	1670.9539610179
0	4408	123	1661.0044728565
0	4409	124	1651.0459197217
0	4410	125	1641.088878441
0	4411	126	1631.133906532
0	4412	127	1621.1944049059
0	4413	128	1611.4016974772
0	4414	129	1601.5908368229
0	4415	130	1591.7687360296
0	4416	131	1581.95744078
0	4417	132	1572.1402246708
0	4418	133	1562.3194472806
0	4419	134	1551.9221256066
0	4420	135	1541.3717610573
0	4421	136	1530.8192726985
0	4422	137	1520.27387104
0	4423	138	1509.7225789776
0	4424	139	1498.7459730455
0	4425	140	1487.3369203644
0	4426	141	1475.9317611735
0	4427	142	1464.5321091436
0	4428	143	1453.1313696638
0	4429	144	1440.9810547153
0	4430	145	1428.37280161
0	4431	146	1415.7431466343
0	4432	147	1403.0941651607
0	4433	148	1389.8238873205
0	4434	149	1376.5141631895
0	4435	150	1363.2335377458
0	4436	151	1349.6644354427
0	4437	152	1335.903612455
0	4438	153	1322.2844071649
0	4439	154	1308.5434932974
0	4440	155	1294.8376443418
0	4441	156	1281.0982487688
0	4442	157	1267.3308680035
0	4443	158	1253.5230468827
0	4444	159	1239.6590378741
0	4445	160	1225.8103017703
0	4446	161	1211.9394814936
0	4447	162	1198.079772646
0	4448	163	1184.2476828147
0	4449	164	1170.3752915382
0	4450	165	1156.5175524234
0	4451	166	1142.6643022699
0	4452	167	1128.7964738311
0	4453	168	1114.9195256233
0	4454	169	1101.0064947121
0	4455	170	1087.09277308
0	4456	171	1073.1940094858
0	4457	172	1059.3295235746
0	4458	173	1045.454273331
0	4459	174	1031.562686957
0	4460	175	1017.6946608142
0	4461	176	1003.8243188869
0	4462	177	989.94398700946
0	4463	178	976.07082008105
0	4464	179	962.18002925336
0	4465	180	948.30172335601
0	4466	181	934.42318499158
0	4467	182	920.53251085198
0	4468	183	906.64519986149
0	4469	184	892.7792307022
0	4470	185	878.90752320935
0	4471	186	865.04788829049
0	4472	187	851.15055305208
0	4473	188	837.24482767389
0	4474	189	823.33443326002
0	4475	190	809.46681111713
0	4476	191	795.63520164602
0	4477	192	781.83242588444
0	4478	193	768.03861702629
0	4479	194	753.56771098508
0	4480	195	739.93396619707
0	4481	196	726.35413698584
0	4482	197	712.78422943095
0	4483	198	699.20684691181
0	4484	199	685.71620551473
0	4485	200	672.26203093457
1	2	1	1578.4613427464
1	4	2	1579.5715045081
1	18	3	1581.5561876604
1	20	4	1586.4898643075
1	39	5	1592.7177137369
1	41	6	1600.2534592729
1	60	7	1609.1769437566
1	62	8	1619.0710908128
1	86	9	1629.0037637418
1	88	10	1638.9341008412
1	117	11	1649.1129276818
1	119	12	1661.0453354148
1	148	13	1673.5713017788
1	150	14	1682.4825292248
1	181	15	1691.8131453674
1	183	16	1695.5671389326
1	216	17	1697.3762977775
1	218	18	1698.7149431584
1	251	19	1699.9531973498
1	253	20	1700.8030368192
1	288	21	1701.4822415169
1	290	22	1709.488976148
1	327	23	1720.5600911779
1	329	24	1733.5392477075
1	366	25	1747.3162704222
1	368	26	1761.1584832035
1	407	27	1775.0702432813
1	409	28	1788.9649324082
1	450	29	1802.8657313576
1	452	30	1816.7641749373
1	493	31	1830.6712168986
1	495	32	1844.5682703312
1	538	33	1858.4757581847
1	540	34	1872.3796654344
1	588	35	1886.2682729438
1	590	36	1900.1617258992
1	635	37	1914.0672918586
1	637	38	1927.95593304
1	684	39	1941.8192613758
1	686	40	1955.7024557721
1	735	41	1969.5841215905
1	737	42	1983.4787444612
1	786	43	1997.3802024601
1	788	44	2011.2714909082
1	839	45	2025.1553793969
1	841	46	2039.0458765477
1	897	47	2052.9329446238
1	899	48	2066.8462265795
1	952	49	2080.7728807703
1	954	50	2094.6498483503
1	1009	51	2107.3969092406
1	1011	52	2116.410831539
1	1071	53	2120.9360540062
1	1073	54	2120.5048353085
1	1136	55	2120.0344859883
1	1138	56	2119.5641121576
1	1203	57	2119.0944308629
1	1205	58	2118.6240558857
1	1275	59	2118.1536666537
1	1277	60	2117.6824006466
1	1350	61	2117.2121830918
1	1352	62	2116.7411177447
1	1427	63	2116.2712858524
1	1429	64	2115.8005333487
1	1512	65	2114.7955725584
1	1514	66	2112.8364102887
1	1600	67	2110.6440530941
1	1602	68	2106.1704403665
1	1690	69	2101.6975887315
1	1692	70	2096.6391956527
1	1785	71	2089.5697793076
1	1787	72	2082.9376931852
1	1877	73	2078.419863862
1	1879	74	2074.2936624894
1	1971	75	2067.3736373968
1	1973	76	2058.9511591028
1	2070	77	2049.1102951029
1	2072	78	2038.9478712408
1	2169	79	2028.7758523691
1	2171	80	2018.5996289225
1	2273	81	2008.4287304608
1	2275	82	1998.2495835368
1	2388	83	1988.0651562605
1	2390	84	1977.9077978879
1	2506	85	1968.1884612162
1	2508	86	1958.4779514531
1	2623	87	1948.7639992675
1	2625	88	1939.0549603878
1	2745	89	1929.3436047509
1	2747	90	1919.6330251861
1	2870	91	1909.910822208
1	2872	92	1900.1872029733
1	2997	93	1890.4840445621
1	2999	94	1880.7721485039
1	3129	95	1871.0513723353
1	3131	96	1861.0772373844
1	3264	97	1851.0875595547
1	3266	98	1841.096139106
1	3401	99	1831.1202287339
1	3403	100	1821.144089778
1	3543	101	1811.1678648908
1	3545	102	1801.1912086597
1	3685	103	1791.209887621
1	3687	104	1781.2482476477
1	3829	105	1771.277584523
1	3831	106	1761.5227281116
1	3975	107	1751.9260671614
1	3977	108	1742.3262181729
1	4121	109	1732.5843797447
1	4123	110	1722.8299162164
1	4395	111	1713.086449923
1	4397	112	1703.3381465003
1	4398	113	1693.5765614985
1	4399	114	1683.8264469272
1	4400	115	1674.0761652095
1	4401	116	1664.3203321155
1	4402	117	1654.5670952313
1	4403	118	1644.823870291
1	4404	119	1635.0678587342
1	4405	120	1625.336210235
1	4406	121	1615.5782095939
1	4407	122	1605.8165506711
1	4408	123	1596.0659276582
1	4409	124	1586.3064208571
1	4410	125	1576.5483956924
1	4411	126	1566.7923985375
1	4412	127	1557.0515624536
1	4413	128	1547.2834782302
1	4414	129	1537.3798678434
1	4415	130	1527.4649110558
1	4416	131	1517.5608619647
1	4417	132	1507.6508360393
1	4418	133	1497.737215165
1	4419	134	1488.4719928391
1	4420	135	1479.3458707612
1	4421	136	1470.2179115769
1	4422	137	1461.0960824257
1	4423	138	1451.9691580441
1	4424	139	1443.4222617447
1	4425	140	1435.3820641451
1	4426	141	1427.3446103698
1	4427	142	1419.3110376056
1	4428	143	1411.2766984925
1	4429	144	1404.4971290641
1	4430	145	1398.5528459009
1	4431	146	1392.5984726185
1	4432	147	1386.6349876709
1	4433	148	1382.2383795483
1	4434	149	1377.9442636594
1	4435	150	1373.6595358783
1	4436	151	1370.8648780324
1	4437	152	1368.6529144663
1	4438	153	1366.2626287099
1	4439	154	1363.9400776494
1	4440	155	1361.5025957329
1	4441	156	1359.1761908894
1	4442	157	1357.0937092975
1	4443	158	1355.3227530839
1	4444	159	1353.8606677661
1	4445	160	1352.4001931148
1	4446	161	1350.9373894874
1	4447	162	1349.4757576613
1	4448	163	1348.0170385102
1	4449	164	1346.554069207
1	4450	165	1345.0926451068
1	4451	166	1343.6316944081
1	4452	167	1342.169206298
1	4453	168	1340.8016817579
1	4454	169	1339.8476453517
1	4455	170	1338.88675889
1	4456	171	1337.7580269873
1	4457	172	1336.5687706266
1	4458	173	1335.3785909312
1	4459	174	1334.1870099697
1	4460	175	1332.9974499373
1	4461	176	1331.807691264
1	4462	177	1330.6170756808
1	4463	178	1329.4270746866
1	4464	179	1328.235561965
1	4465	180	1327.0451201648
1	4466	181	1325.8546584239
1	4467	182	1324.6631557113
1	4468	183	1323.4921323741
1	4469	184	1322.3833192652
1	4470	185	1321.2740472825
1	4471	186	1320.1657407004
1	4472	187	1319.044544382
1	4473	188	1318.2097313078
1	4474	189	1317.4871134162
1	4475	190	1316.2875415171
1	4476	191	1314.6404569708
1	4477	192	1312.7569282195
1	4478	193	1310.8746230919
1	4479	194	1312.2296878621
1	4480	195	1309.318593815
1	4481	196	1306.1411478268
1	4482	197	1302.9660233352
1	4483	198	1299.789149831
1	4484	199	1296.3137446754
1	4485	200	1292.5515033305
2	4	2	4.1061966058897
2	18	3	6.0195495591482
2	20	4	7.7148368984793
2	39	5	9.5879868385225
2	41	6	11.391389363371
2	60	7	13.513839789145
2	62	8	13.99235115225
2	86	9	13.890224446259
2	88	10	13.976677174468
2	117	11	13.994826577434
2	119	12	13.923680325528
2	148	13	13.923542996629
2	150	14	13.91007151508
2	181	15	13.964598868005
2	183	16	13.995233640105
2	216	17	13.952304350403
2	218	18	13.956911946491
2	251	19	11.503494614513
2	253	20	7.0034946145128
2	288	21	7.8970062485022
2	290	22	10.10483181514
2	327	23	11.990706169653
2	329	24	13.981089308816
2	366	25	13.965594365916
2	368	26	13.989059597438
2	407	27	13.956378436291
2	409	28	13.910982951869
2	450	29	13.88918493646
2	452	30	13.908189346099
2	493	31	13.983992603337
2	495	32	13.971500478752
2	538	33	13.873081948087
2	540	34	13.985133641064
2	588	35	13.886848415199
2	590	36	13.876205747321
2	635	37	13.967912819823
2	637	38	13.871047234884
2	684	39	13.89239756926
2	686	40	13.872267716837
2	735	41	13.999815066161
2	737	42	13.964707984752
2	786	43	13.906584702837
2	788	44	13.922364303169
2	839	45	13.929034490574
2	841	46	13.93922677479
2	897	47	13.924399639922
2	899	48	13.96850544848
2	952	49	13.986686690277
2	954	50	13.935194088209
2	1009	51	13.930097484484
2	1011	52	13.948393711536
2	1071	53	13.882971800906
2	1073	54	13.87138918183
2	1136	55	13.933780807857
2	1138	56	13.942265776542
2	1203	57	13.95140511482
2	1205	58	13.886548467774
2	1275	59	13.920721456567
2	1277	60	13.906796863726
2	1350	61	13.917803910668
2	1352	62	13.924582225601
2	1427	63	13.959688465288
2	1429	64	13.957318032989
2	1512	65	13.940553226951
2	1514	66	13.998651232829
2	1600	67	13.999179182528
2	1602	68	13.886099785112
2	1690	69	13.881868150404
2	1692	70	13.887636745651
2	1785	71	13.978686858166
2	1787	72	11.380505228889
2	1877	73	6.8805052288885
2	1879	74	8.4946715655791
2	1971	75	10.462119500426
2	1973	76	12.535577293956
2	2070	77	13.991704303646
2	2072	78	13.884412832095
2	2169	79	13.939308186586
2	2171	80	13.975432322551
2	2273	81	13.918436620038
2	2275	82	13.942294309565
2	2388	83	13.978181636031
2	2390	84	13.992612206677
2	2506	85	13.973604970614
2	2508	86	13.905247902325
2	2623	87	13.91578970917
2	2625	88	13.942760436635
2	2745	89	13.903644982614
2	2747	90	13.957507387074
2	2870	91	13.990155698378
2	2872	92	13.951199041368
2	2997	93	13.920407453054
2	2999	94	13.913764986643
2	3129	95	13.919862737071
2	3131	96	13.927667983579
2	3264	97	13.987681491903
2	3266	98	13.949967818004
2	3401	99	13.923793041168
2	3403	100	13.956372545112
2	3543	101	13.893336640052
2	3545	102	13.920919575624
2	3685	103	13.944676370309
2	3687	104	13.937630747855
2	3829	105	13.901362465066
2	3831	106	13.954829121996
2	3975	107	13.995929163198
2	3977	108	13.882499602956
2	4121	109	13.910075074201
2	4123	110	13.894284862701
2	4395	111	13.913974985913
2	4397	112	13.871336730926
2	4398	113	13.935027445888
2	4399	114	13.877062078733
2	4400	115	13.981228611642
2	4401	116	13.873776447547
2	4402	117	13.92000553376
2	4403	118	13.94351971182
2	4404	119	13.968914518312
2	4405	120	13.898790548788
2	4406	121	13.952566244465
2	4407	122	13.902741317735
2	4408	123	13.901865296939
2	4409	124	13.981241170191
2	4410	125	13.8802250754
2	4411	126	13.893757563008
2	4412	127	13.915271799301
2	4413	128	13.929496678174
2	4414	129	13.878089943773
2	4415	130	13.993096217676
2	4416	131	13.875779724845
2	4417	132	13.913274697398
2	4418	133	13.919895130382
2	4419	134	13.88549514615
2	4420	135	13.879287964974
2	4421	136	13.94209516291
2	4422	137	13.887332082232
2	4423	138	13.946347575046
2	4424	139	13.932372469571
2	4425	140	13.922565494154
2	4426	141	13.941802534193
2	4427	142	13.953375940905
2	4428	143	13.932419939607
2	4429	144	13.946562061303
2	4430	145	13.880639836157
2	4431	146	13.945333202807
2	4432	147	13.879452574104
2	4433	148	13.994609436856
2	4434	149	13.989116368371
2	4435	150	13.909947179651
2	4436	151	13.943677626096
2	4437	152	13.920825543441
2	4438	153	13.967977306216
2	4439	154	13.87677123613
2	4440	155	13.876138116629
2	4441	156	13.917471618634
2	4442	157	13.994427491466
2	4443	158	13.974751957422
2	4444	159	13.976185514266
2	4445	160	13.998359918438
2	4446	161	13.959418661566
2	4447	162	13.990113809092
2	4448	163	13.948902800528
2	4449	164	13.974824944639
2	4450	165	13.982017293202
2	4451	166	13.942421763171
2	4452	167	13.953275428286
2	4453	168	13.932196781875
2	4454	169	13.996582278002
2	4455	170	13.965027879565
2	4456	171	13.994187416655
2	4457	172	13.979502878073
2	4458	173	13.971636267495
2	4459	174	13.95793872149
2	4460	175	13.896624165105
2	4461	176	13.997516584068
2	4462	177	13.958810173364
2	4463	178	13.994584853351
2	4464	179	13.937199156948
2	4465	180	13.947940933374
2	4466	181	13.94147206862
2	4467	182	13.921638553711
2	4468	183	13.962689000308
2	4469	184	13.930471157786
2	4470	185	13.879515518434
2	4471	186	13.926509896715
2	4472	187	13.974079824579
2	4473	188	13.941432711675
2	4474	189	13.962360876054
2	4475	190	13.870577896321
2	4476	191	13.979328471923
2	4477	192	13.918533257053
2	4478	193	13.878299675202
2	4479	194	13.89299565587
2	4480	195	13.919382929872
2	4481	196	13.91724806533
2	4482	197	13.944629625464
2	4483	198	13.942991133153
2	4484	199	13.945376214006
2	4485	200	13.874038293089
3	18	3	1.9133529532584
3	20	4	1.6952873393311
3	39	5	1.8731499400432
3	41	6	1.8034025248489
3	60	7	2.1224504257739
3	62	8	0.47851136310433
3	86	9	-0.1021267059911
3	88	10	0.086452728209551
3	117	11	0.018149402965792
3	119	12	-0.071146251906175
3	148	13	-0.0001373288989992
3	150	14	-0.013471481548622
3	181	15	0.054527352924923
3	183	16	0.03063477210002
3	216	17	-0.04292928970186
3	218	18	0.0046075960877356
3	251	19	-2.4534173319781
3	253	20	-4.5
3	288	21	0.8935116339894
3	290	22	2.2078255666373
3	327	23	1.8858743545134
3	329	24	1.9903831391631
3	366	25	-0.01549494290026
3	368	26	0.023465231521987
3	407	27	-0.032681161146611
3	409	28	-0.045395484422334
3	450	29	-0.021798015409148
3	452	30	0.019004409639164
3	493	31	0.075803257238585
3	495	32	-0.012492124584968
3	538	33	-0.098418530665803
3	540	34	0.11205169297755
3	588	35	-0.098285225864965
3	590	36	-0.01064266787842
3	635	37	0.091707072502468
3	637	38	-0.096865584938786
3	684	39	0.021350334375166
3	686	40	-0.020129852422979
3	735	41	0.12754734932445
3	737	42	-0.035107081409079
3	786	43	-0.058123281914741
3	788	44	0.015779600332026
3	839	45	0.0066701874043797
3	841	46	0.010192284216172
3	897	47	-0.014827134867664
3	899	48	0.044105808557942
3	952	49	0.018181241797283
3	954	50	-0.051492602068466
3	1009	51	-0.0050966037251055
3	1011	52	0.018296227052343
3	1071	53	-0.065421910630539
3	1073	54	-0.011582619075197
3	1136	55	0.062391626026946
3	1138	56	0.0084849686850799
3	1203	57	0.0091393382777465
3	1205	58	-0.064856647045817
3	1275	59	0.034172988792415
3	1277	60	-0.013924592840485
3	1350	61	0.011007046941668
3	1352	62	0.0067783149331806
3	1427	63	0.035106239686721
3	1429	64	-0.0023704322986315
3	1512	65	-0.016764806038699
3	1514	66	0.058098005878273
3	1600	67	0.0005279496987356
3	1602	68	-0.11307939741528
3	1690	69	-0.0042316347081215
3	1692	70	0.0057685952470639
3	1785	71	0.091050112515221
3	1787	72	-2.598181629278
3	1877	73	-4.5
3	1879	74	1.6141663366905
3	1971	75	1.9674479348469
3	1973	76	2.0734577935305
3	2070	77	1.4561270096891
3	2072	78	-0.10729147155071
3	2169	79	0.054895354490727
3	2171	80	0.036124135965947
3	2273	81	-0.056995702513959
3	2275	82	0.023857689527794
3	2388	83	0.035887326465454
3	2390	84	0.014430570646654
3	2506	85	-0.01900723606348
3	2508	86	-0.068357068288606
3	2623	87	0.010541806844994
3	2625	88	0.026970727464649
3	2745	89	-0.039115454021376
3	2747	90	0.053862404460089
3	2870	91	0.032648311303928
3	2872	92	-0.038956657010131
3	2997	93	-0.030791588313878
3	2999	94	-0.0066424664109945
3	3129	95	0.0060977504285979
3	3131	96	0.0078052465082141
3	3264	97	0.060013508324046
3	3266	98	-0.037713673899415
3	3401	99	-0.026174776835834
3	3403	100	0.032579503944145
3	3543	101	-0.063035905060826
3	3545	102	0.027582935572138
3	3685	103	0.023756794685031
3	3687	104	-0.0070456224540241
3	3829	105	-0.036268282788805
3	3831	106	0.053466656929812
3	3975	107	0.041100041202736
3	3977	108	-0.11342956024222
3	4121	109	0.027575471245218
3	4123	110	-0.015790211500134
3	4395	111	0.019690123212058
3	4397	112	-0.042638254987542
3	4398	113	0.063690714961849
3	4399	114	-0.057965367154683
3	4400	115	0.10416653290857
3	4401	116	-0.10745216409443
3	4402	117	0.046229086213279
3	4403	118	0.023514178059996
3	4404	119	0.025394806491676
3	4405	120	-0.070123969523701
3	4406	121	0.05377569567645
3	4407	122	-0.04982492672978
3	4408	123	-0.00087602079613092
3	4409	124	0.079375873252284
3	4410	125	-0.1010160947917
3	4411	126	0.013532487608026
3	4412	127	0.021514236293733
3	4413	128	0.014224878873211
3	4414	129	-0.051406734401827
3	4415	130	0.11500627390342
3	4416	131	-0.11731649283087
3	4417	132	0.037494972553104
3	4418	133	0.0066204329836186
3	4419	134	-0.034399984232149
3	4420	135	-0.0062071811757054
3	4421	136	0.062807197936344
3	4422	137	-0.054763080677949
3	4423	138	0.059015492813197
3	4424	139	-0.013975105474238
3	4425	140	-0.0098069754173054
3	4426	141	0.019237040039153
3	4427	142	0.011573406711687
3	4428	143	-0.020956001298037
3	4429	144	0.014142121695913
3	4430	145	-0.065922225145624
3	4431	146	0.064693366650026
3	4432	147	-0.065880628703161
3	4433	148	0.11515686275204
3	4434	149	-0.0054930684855208
3	4435	150	-0.079169188719241
3	4436	151	0.033730446444824
3	4437	152	-0.0228520826553
3	4438	153	0.047151762775611
3	4439	154	-0.091206070086919
3	4440	155	-0.00063311950070855
3	4441	156	0.041333502004855
3	4442	157	0.076955872832331
3	4443	158	-0.019675534043927
3	4444	159	0.0014335568435495
3	4445	160	0.022174404172693
3	4446	161	-0.038941256871913
3	4447	162	0.030695147525986
3	4448	163	-0.04121100856457
3	4449	164	0.025922144111247
3	4450	165	0.0071923485631125
3	4451	166	-0.039595530030784
3	4452	167	0.010853665114846
3	4453	168	-0.021078646411189
3	4454	169	0.064385496126489
3	4455	170	-0.031554398436565
3	4456	171	0.029159537090454
3	4457	172	-0.014684538582804
3	4458	173	-0.0078666105773308
3	4459	174	-0.013697546005714
3	4460	175	-0.06131455638446
3	4461	176	0.1008924189629
3	4462	177	-0.038706410704181
3	4463	178	0.035774679987226
3	4464	179	-0.057385696403216
3	4465	180	0.010741776425856
3	4466	181	-0.0064688647538418
3	4467	182	-0.01983351490926
3	4468	183	0.041050446596929
3	4469	184	-0.032217842522078
3	4470	185	-0.050955639351159
3	4471	186	0.04699437828036
3	4472	187	0.047569927864243
3	4473	188	-0.032647112903652
3	4474	189	0.020928164378274
3	4475	190	-0.091782979732379
3	4476	191	0.10875057560159
3	4477	192	-0.060795214870012
3	4478	193	-0.040233581850771
3	4479	194	0.014695980667602
3	4480	195	0.026387274002191
3	4481	196	-0.0021348645421675
3	4482	197	0.027381560134234
3	4483	198	-0.0016384923108852
3	4484	199	0.0023850808525463
3	4485	200	-0.071337920916267
4	18	3	4.1962556146115
4	20	4	4.6765885426193
4	39	5	5.9822455727343
4	41	6	6.7469998477461
4	60	7	8.9023657158011
4	62	8	3.651678681686
4	86	9	1.6857621818206
4	88	10	2.3276633668785
4	117	11	2.0995306276608
4	119	12	1.7923040941768
4	148	13	2.0305681317735
4	150	14	1.9844951865828
4	181	15	2.2187318873595
4	183	16	2.1416854339172
4	216	17	1.8896148890835
4	218	18	2.0499339673421
4	251	19	0.973
4	253	20	0.973
4	288	21	3.236958348016
4	290	22	7.0694109561587
4	327	23	7.2974163894139
4	329	24	8.7433911631671
4	366	25	1.9831721788576
4	368	26	2.116835898497
4	407	27	1.9244585801898
4	409	28	1.8775583559564
4	450	29	1.9545657515643
4	452	30	2.0931646705581
4	493	31	2.2926746988581
4	495	32	1.993865292131
4	538	33	1.6968396252803
4	540	34	2.4149847823944
4	588	35	1.6983583398882
4	590	36	1.9906198998388
4	635	37	2.3442713071536
4	637	38	1.7018725964397
4	684	39	2.0993392475273
4	686	40	1.9585122345881
4	735	41	2.4691677522194
4	737	42	1.9170802753567
4	786	43	1.8345014514108
4	788	44	2.0838538984303
4	839	45	2.0539801513469
4	841	46	2.0668686152862
4	897	47	1.9813596940184
4	899	48	2.1840996762636
4	952	49	2.0987681125428
4	954	50	1.8592856847688
4	1009	51	2.0145873760113
4	1011	52	2.0950692067684
4	1071	53	1.8080099866508
4	1073	54	1.9870007069688
4	1136	55	2.2415869227426
4	1138	56	2.0614496349521
4	1203	57	2.0646020593826
4	1205	58	1.8102089718445
4	1275	59	2.1453880261281
4	1277	60	1.9826536733129
4	1350	61	2.0673636130683
4	1352	62	2.0538817544551
4	1427	63	2.1528270365066
4	1429	64	2.0265038417738
4	1512	65	1.9764402783138
4	1514	66	2.2347131127692
4	1600	67	2.0405446651404
4	1602	68	1.6487905152147
4	1690	69	2.0126291187762
4	1692	70	2.0466796925005
4	1785	71	2.3433989621326
4	1787	72	0.973
4	1877	73	0.973
4	1879	74	4.8809554156367
4	1971	75	6.6811452761601
4	1973	76	8.1607584221603
4	2070	77	6.9480584672652
4	2072	78	1.6680322027993
4	2169	79	2.2170514259717
4	2171	80	2.1579993066844
4	2273	81	1.8393252185798
4	2275	82	2.1131063774542
4	2388	83	2.157506963768
4	2390	84	2.0867532276998
4	2506	85	1.9721338004887
4	2508	86	1.8000889448787
4	2623	87	2.0655927143501
4	2625	88	2.1236171019815
4	2745	89	1.8979343131076
4	2747	90	2.2156768175481
4	2870	91	2.1479163480387
4	2872	92	1.9028703189759
4	2997	93	1.9274090838955
4	2999	94	2.0077586487826
4	3129	95	2.0511097794732
4	3131	96	2.0576484682309
4	3264	97	2.2398922754829
4	3266	98	1.9069349143407
4	3401	99	1.9432214712872
4	3403	100	2.1439613436349
4	3543	101	1.8168896615362
4	3545	102	2.1233006114287
4	3685	103	2.1130242583451
4	3687	104	2.0088001748926
4	3829	105	1.9072621324086
4	3831	106	2.2140373373517
4	3975	107	2.1770614278808
4	3977	108	1.6473510828978
4	4121	109	2.1220983905492
4	4123	110	1.9751750017376
4	4395	111	2.0960799393481
4	4397	112	1.8831767790609
4	4398	113	2.2460956727086
4	4399	114	1.8324400030243
4	4400	115	2.3879104851153
4	4401	116	1.6666890233496
4	4402	117	2.1857539942143
4	4403	118	2.1120842252302
4	4404	119	2.1211551333534
4	4405	120	1.7936195303491
4	4406	121	2.2148160768082
4	4407	122	1.8619680915987
4	4408	123	2.0258853731746
4	4409	124	2.304380476416
4	4410	125	1.6887067812302
4	4411	126	2.0733073570021
4	4412	127	2.1023355462812
4	4413	128	2.0793892076523
4	4414	129	1.8544662206567
4	4415	130	2.4259796074968
4	4416	131	1.633853726441
4	4417	132	2.1557066895618
4	4418	133	2.0528665696243
4	4419	134	1.912038644498
4	4420	135	2.0057614883071
4	4421	136	2.2439569957465
4	4422	137	1.8440580280714
4	4423	138	2.231711462374
4	4424	139	1.9850053294315
4	4425	140	1.9980235595548
4	4426	141	2.0975280706569
4	4427	142	2.0729929956751
4	4428	143	1.9615701670856
4	4429	144	2.0809115709552
4	4430	145	1.8061360510748
4	4431	146	2.2506757699835
4	4432	147	1.8061733875953
4	4433	148	2.4266845615448
4	4434	149	2.0192126891949
4	4435	150	1.7642446806966
4	4436	151	2.1464322636876
4	4437	152	1.954085001403
4	4438	153	2.1942935692296
4	4439	154	1.721247569189
4	4440	155	2.0240866259417
4	4441	156	2.1690471500905
4	4442	157	2.2978220226587
4	4443	158	1.9699951794538
4	4444	159	2.041236054439
4	4445	160	2.1134871274209
4	4446	161	1.9036851063429
4	4447	162	2.1413264045017
4	4448	163	1.8950788450201
4	4449	164	2.1235722209708
4	4450	165	2.0612404299833
4	4451	166	1.8999094614842
4	4452	167	2.0705621398081
4	4453	168	1.9611367237514
4	4454	169	2.2556808060981
4	4455	170	1.9290670990496
4	4456	171	2.1365950768377
4	4457	172	1.9872740217513
4	4458	173	2.009453645548
4	4459	174	1.9884640791529
4	4460	175	1.8229391595762
4	4461	176	2.3789436116768
4	4462	177	1.9044186435818
4	4463	178	2.1589494721561
4	4464	179	1.8396713411021
4	4465	180	2.0696270191915
4	4466	181	2.0111236607463
4	4467	182	1.9642910512727
4	4468	183	2.1731615557441
4	4469	184	1.923572434874
4	4470	185	1.8561023258353
4	4471	186	2.1890582187141
4	4472	187	2.1963956888293
4	4473	188	1.9231637928399
4	4474	189	2.1054147024235
4	4475	190	1.7188260663154
4	4476	191	2.4031119214083
4	4477	192	1.8265887841823
4	4478	193	1.8918554453362
4	4479	194	2.0771229812591
4	4480	195	2.1191228175185
4	4481	196	2.0232267690783
4	4482	197	2.1252008054669
4	4483	198	2.0275077178617
4	4484	199	2.0412729242551
4	4485	200	1.7874619867738
5	20	4	2414.8767583254
5	39	5	2411.8725636174
5	41	6	2407.2970525089
5	60	7	2402.4626210862
5	62	8	2396.3056860371
5	86	9	2388.8743536096
5	88	10	2380.097228827
5	117	11	2370.3507264333
5	119	12	2360.5878487076
5	148	13	2350.7849318213
5	150	14	2341.2418729237
5	181	15	2334.6305580324
5	183	16	2337.3467480277
5	216	17	2348.0519014368
5	218	18	2358.3998493504
5	251	19	2371.2788021446
5	253	20	2385.0887639745
5	288	21	2398.4985461925
5	290	22	2411.2485283293
5	327	23	2420.6905829484
5	329	24	2427.6440450998
5	366	25	2431.3031180431
5	368	26	2432.9057471878
5	407	27	2434.8184996871
5	409	28	2436.9106889558
5	450	29	2438.5031214217
5	452	30	2439.359314087
5	493	31	2440.3695716034
5	495	32	2441.3815056744
5	538	33	2442.392207776
5	540	34	2443.4019859718
5	588	35	2444.4122552489
5	590	36	2445.4251439738
5	635	37	2446.4367595227
5	637	38	2447.4467230743
5	684	39	2448.4574488286
5	686	40	2449.467800329
5	735	41	2450.4780716181
5	737	42	2449.7461704329
5	786	43	2448.6331060936
5	788	44	2447.5209445587
5	839	45	2446.407523851
5	841	46	2445.2946584851
5	897	47	2444.1824360332
5	899	48	2443.0706190476
5	952	49	2441.9568028547
5	954	50	2440.8451110823
5	1009	51	2439.8503503047
5	1011	52	2438.9091742415
5	1071	53	2438.2310626655
5	1073	54	2433.9050446447
5	1136	55	2424.21615465
5	1138	56	2411.3460908785
5	1203	57	2397.4706148925
5	1205	58	2383.5587488873
5	1275	59	2369.633660475
5	1277	60	2355.7048479554
5	1350	61	2341.7904321874
5	1352	62	2327.8638711022
5	1427	63	2313.9188814831
5	1429	64	2299.9979078089
5	1512	65	2286.0826278217
5	1514	66	2272.1551827891
5	1600	67	2258.2333055256
5	1602	68	2244.3319301521
5	1690	69	2230.5388995206
5	1692	70	2216.7493601282
5	1785	71	2203.5089906314
5	1787	72	2190.3028214657
5	1877	73	2177.2175397498
5	1879	74	2165.2424954871
5	1971	75	2153.7742474813
5	1973	76	2145.5067126864
5	2070	77	2139.5021617314
5	2072	78	2133.1382634535
5	2169	79	2125.5907683726
5	2171	80	2116.6856371113
5	2273	81	2107.1659774036
5	2275	82	2097.6471887421
5	2388	83	2088.1193509075
5	2390	84	2078.5897193553
5	2506	85	2069.0611372048
5	2508	86	2059.5358263678
5	2623	87	2050.0131364827
5	2625	88	2040.1145859665
5	2745	89	2030.1137191838
5	2747	90	2020.1430603783
5	2870	91	2010.1475011546
5	2872	92	2000.1671663148
5	2997	93	1990.1688805242
5	2999	94	1980.1967867191
5	3129	95	1970.2022643924
5	3131	96	1960.2251632516
5	3264	97	1950.2447792089
5	3266	98	1940.2416033717
5	3401	99	1930.4505492545
5	3403	100	1920.7111281679
5	3543	101	1910.9822782709
5	3545	102	1901.2447243325
5	3685	103	1891.5146576024
5	3687	104	1881.7809631245
5	3829	105	1872.0450304444
5	3831	106	1862.3040305478
5	3975	107	1852.5818645544
5	3977	108	1842.8447400127
5	4121	109	1832.9814100579
5	4123	110	1822.8651402954
5	4395	111	1812.7663602663
5	4397	112	1802.7683831069
5	4398	113	1792.8207055556
5	4399	114	1782.8564651203
5	4400	115	1772.894810806
5	4401	116	1762.92641096
5	4402	117	1752.9705464942
5	4403	118	1743.0163782743
5	4404	119	1733.0664695518
5	4405	120	1723.1120307929
5	4406	121	1713.1667215774
5	4407	122	1703.2092787605
5	4408	123	1693.2786226055
5	4409	124	1683.3212558794
5	4410	125	1673.3672220533
5	4411	126	1663.423033799
5	4412	127	1653.4787248627
5	4413	128	1643.5397330167
5	4414	129	1633.5919175781
5	4415	130	1623.642267259
5	4416	131	1613.8052561329
5	4417	132	1603.9772865096
5	4418	133	1594.1566123093
5	4419	134	1584.3343173611
5	4420	135	1574.5137175376
5	4421	136	1564.689460578
5	4422	137	1554.4463748336
5	4423	138	1543.8860753127
5	4424	139	1533.3342540794
5	4425	140	1522.7942046572
5	4426	141	1512.2606988159
5	4427	142	1501.4789940106
5	4428	143	1490.0699286098
5	4429	144	1478.6607307259
5	4430	145	1467.2472934014
5	4431	146	1455.8330882217
5	4432	147	1443.9933207188
5	4433	148	1431.371304694
5	4434	149	1418.7494921362
5	4435	150	1406.1082566946
5	4436	151	1393.0137329604
5	4437	152	1379.7134368384
5	4438	153	1366.3923574996
5	4439	154	1352.9552444691
5	4440	155	1339.1612513844
5	4441	156	1325.5175595515
5	4442	157	1311.7952717217
5	4443	158	1298.063140569
5	4444	159	1284.34383309
5	4445	160	1270.5543130664
5	4446	161	1256.770401972
5	4447	162	1242.9075444336
5	4448	163	1229.0588408221
5	4449	164	1215.2017520284
5	4450	165	1201.3410102018
5	4451	166	1187.481304414
5	4452	167	1173.6042162362
5	4453	168	1159.7454747079
5	4454	169	1145.8746003383
5	4455	170	1132.0285420562
5	4456	171	1118.1537631446
5	4457	172	1104.2607169863
5	4458	173	1090.3437362108
5	4459	174	1076.4414255343
5	4460	175	1062.545985077
5	4461	176	1048.6801665103
5	4462	177	1034.8080168996
5	4463	178	1020.9263689737
5	4464	179	1007.0420958507
5	4465	180	993.16988753423
5	4466	181	979.29551147518
5	4467	182	965.40902301494
5	4468	183	951.56068089046
5	4469	184	937.68018191052
5	4470	185	923.79826831375
5	4471	186	909.92726883211
5	4472	187	896.04224506591
5	4473	188	882.18989067257
5	4474	189	868.30134966085
5	4475	190	854.42226136476
5	4476	191	840.52389602445
5	4477	192	826.60106566886
5	4478	193	812.71939216915
5	4479	194	798.86885938887
5	4480	195	785.09576191928
5	4481	196	771.28858676157
5	4482	197	756.80350840231
5	4483	198	743.11761349044
5	4484	199	729.56512193335
5	4485	200	716.00329998008
6	20	4	1578.4506684253
6	39	5	1579.5537930429
6	41	6	1581.4165868293
6	60	7	1586.3131998433
6	62	8	1592.5493268352
6	86	9	1600.0762428036
6	88	10	1608.9662610246
6	117	11	1618.8381252186
6	119	12	1628.7265753681
6	148	13	1638.6555796713
6	150	14	1648.8046840783
6	181	15	1660.6325348346
6	183	16	1673.301875555
6	216	17	1682.2138796467
6	218	18	1691.5459182626
6	251	19	1695.5099147679
6	253	20	1697.3308411958
6	288	21	1698.6335971011
6	290	22	1699.8391930545
6	327	23	1700.7320023719
6	329	24	1701.2941834759
6	366	25	1708.3978488175
6	368	26	1718.9439634858
6	407	27	1731.5308475178
6	409	28	1745.2985167308
6	450	29	1759.1189484736
6	452	30	1773.033284259
6	493	31	1786.9263172904
6	495	32	1800.8424062571
6	538	33	1814.7415532097
6	540	34	1828.6279946407
6	588	35	1842.5211894047
6	590	36	1856.4504067414
6	635	37	1870.362115399
6	637	38	1884.2511058366
6	684	39	1898.150578063
6	686	40	1912.0449035605
6	735	41	1925.9381259941
6	737	42	1939.8457802581
6	786	43	1953.7382693188
6	788	44	1967.6194902081
6	839	45	1981.5164272105
6	841	46	1995.4064328251
6	897	47	2009.2884140396
6	899	48	2023.165334505
6	952	49	2037.0672076773
6	954	50	2050.942565321
6	1009	51	2064.8483957723
6	1011	52	2078.754013543
6	1071	53	2092.6537938379
6	1073	54	2105.6893007364
6	1136	55	2115.3934075218
6	1138	56	2120.5034639826
6	1203	57	2120.5707901428
6	1205	58	2120.100904949
6	1275	59	2119.6305731572
6	1277	60	2119.160115581
6	1350	61	2118.6901442679
6	1352	62	2118.2197627351
6	1427	63	2117.748758764
6	1429	64	2117.2785659507
6	1512	65	2116.8085654471
6	1514	66	2116.3381540589
6	1600	67	2115.8679307271
6	1602	68	2115.0734324455
6	1690	69	2113.117474094
6	1692	70	2111.1620108271
6	1785	71	2106.8134566117
6	1787	72	2102.3345389208
6	1877	73	2097.6439806372
6	1879	74	2090.5944611588
6	1971	75	2083.8432846358
6	1973	76	2078.976317442
6	2070	77	2075.2888157107
6	2072	78	2069.0204663062
6	2169	79	2060.9635068728
6	2171	80	2051.4572692998
6	2273	81	2041.2950219223
6	2275	82	2031.1337043885
6	2388	83	2020.9627268519
6	2390	84	2010.7898345208
6	2506	85	2000.6180624254
6	2508	86	1990.4497824619
6	2623	87	1980.2843003673
6	2625	88	1970.4765505949
6	2745	89	1960.7547187759
6	2747	90	1951.0622520996
6	2870	91	1941.3455797536
6	2872	92	1931.6437070146
6	2997	93	1921.9243841758
6	2999	94	1912.2305225376
6	3129	95	1902.5148581574
6	3131	96	1892.8161288938
6	3264	97	1883.1142083248
6	3266	98	1873.3901318768
6	3401	99	1863.491690998
6	3403	100	1853.5113144172
6	3543	101	1843.5417705588
6	3545	102	1833.5633073198
6	3685	103	1823.5925165238
6	3687	104	1813.618008229
6	3829	105	1803.6412063586
6	3831	106	1793.6592119075
6	3975	107	1783.6965173148
6	3977	108	1773.7184940958
6	4121	109	1763.8847696399
6	4123	110	1754.2768921675
6	4395	111	1744.6856254824
6	4397	112	1734.9963352662
6	4398	113	1725.2474866733
6	4399	114	1715.4824062474
6	4400	115	1705.7198602511
6	4401	116	1695.9507035501
6	4402	117	1686.1938316785
6	4403	118	1676.4386221487
6	4404	119	1666.6875869809
6	4405	120	1656.9321123194
6	4406	121	1647.1855847258
6	4407	122	1637.4271660503
6	4408	123	1627.6949986387
6	4409	124	1617.9366545333
6	4410	125	1608.1815767121
6	4411	126	1598.436147674
6	4412	127	1588.6906003654
6	4413	128	1578.9502638727
6	4414	129	1569.2012801487
6	4415	130	1559.4504982186
6	4416	131	1549.7097596042
6	4417	132	1539.7888785042
6	4418	133	1529.8753617955
6	4419	134	1519.9602090176
6	4420	135	1510.0467673885
6	4421	136	1500.1296340507
6	4422	137	1490.655481996
6	4423	138	1481.5207661148
6	4424	139	1472.3933839975
6	4425	140	1463.2761845598
6	4426	141	1454.1646453552
6	4427	142	1445.3482786734
6	4428	143	1437.3080721097
6	4429	144	1429.2677721828
6	4430	145	1421.2244846337
6	4431	146	1413.1806559609
6	4432	147	1405.917291075
6	4433	148	1399.9665192505
6	4434	149	1394.0158433514
6	4435	150	1388.0560103459
6	4436	151	1383.2675193502
6	4437	152	1378.9764452185
6	4438	153	1374.6786657991
6	4439	154	1371.1688625393
6	4440	155	1369.2244300675
6	4441	156	1366.8305435488
6	4442	157	1364.4612846877
6	4443	158	1362.1062138574
6	4444	159	1359.6768407067
6	4445	160	1357.5856537633
6	4446	161	1355.6652160892
6	4447	162	1354.2032522047
6	4448	163	1352.7427809807
6	4449	164	1351.2814254621
6	4450	165	1349.8196846992
6	4451	166	1348.3580531953
6	4452	167	1346.8945885617
6	4453	168	1345.4330587471
6	4454	169	1343.9702494154
6	4455	170	1342.5100571653
6	4456	171	1341.0468360642
6	4457	172	1340.0707920222
6	4458	173	1339.1164847696
6	4459	174	1338.0365811447
6	4460	175	1336.8446695907
6	4461	176	1335.6552989185
6	4462	177	1334.4653851865
6	4463	178	1333.2746567167
6	4464	179	1332.0837030653
6	4465	180	1330.8937842976
6	4466	181	1329.7036795877
6	4467	182	1328.5125359111
6	4468	183	1327.324664318
6	4469	184	1326.1340344017
6	4470	185	1324.9432831425
6	4471	186	1323.7545879623
6	4472	187	1322.6442511231
6	4473	188	1321.5365267405
6	4474	189	1320.42590864
6	4475	190	1319.3090562541
6	4476	191	1318.380072521
6	4477	192	1317.6568086063
6	4478	193	1316.6112302225
6	4479	194	1315.0817223685
6	4480	195	1313.2022435209
6	4481	196	1311.318114426
6	4482	197	1312.6709329644
6	4483	198	1310.0635124119
6	4484	199	1306.8924629632
6	4485	200	1303.7192303631
7	39	5	4.0332649588119
7	41	6	5.8265110515686
7	60	7	7.7852127750962
7	62	8	9.5658873894228
7	86	9	11.450149483434
7	88	10	13.391487500134
7	117	11	13.949883621705
7	119	12	13.87602620427
7	148	13	13.885232782268
7	150	14	13.987373048679
7	181	15	13.890608048609
7	183	16	13.887004709987
7	216	17	13.926980708602
7	218	18	13.89086526999
7	251	19	13.965056618985
7	253	20	13.946692067499
7	288	21	13.097137451398
7	290	22	11.939132677032
7	327	23	7.4783001788439
7	329	24	7.8592269216425
7	366	25	9.5749213322898
7	368	26	11.610942506126
7	407	27	13.581243869506
7	409	28	13.973211987913
7	450	29	13.918392209036
7	452	30	13.928662607018
7	493	31	13.985277111761
7	495	32	13.95532245066
7	538	33	13.938708755139
7	540	34	13.908545650935
7	588	35	13.927478809105
7	590	36	13.897819017794
7	635	37	13.989504252097
7	637	38	13.94374062394
7	684	39	13.903882643976
7	686	40	13.969130632835
7	735	41	13.884234787642
7	737	42	13.881978327318
7	786	43	13.927070145076
7	788	44	13.922745489741
7	839	45	13.95273740395
7	841	46	13.968270483359
7	897	47	13.918685564972
7	899	48	13.921468284922
7	952	49	13.897015957548
7	954	50	13.964752228069
7	1009	51	13.91147568828
7	1011	52	13.974545761354
7	1071	53	13.965476403411
7	1073	54	13.989670229855
7	1136	55	13.951804798429
7	1138	56	13.892850009208
7	1203	57	13.958218119799
7	1205	58	13.933717581006
7	1275	59	13.982012811573
7	1277	60	13.954506225567
7	1350	61	13.954468280503
7	1352	62	13.914126337939
7	1427	63	13.998578815588
7	1429	64	13.932968401979
7	1512	65	13.954534002345
7	1514	66	13.957377178506
7	1600	67	13.932528918332
7	1602	68	13.977439161665
7	1690	69	13.873707558191
7	1692	70	13.945779315263
7	1785	71	13.942668949808
7	1787	72	13.91575948562
7	1877	73	13.907857767178
7	1879	74	13.74288410399
7	1971	75	12.057991498623
7	1973	76	7.5687227125094
7	2070	77	7.8527784139012
7	2072	78	9.8502493766883
7	2169	79	11.94908444162
7	2171	80	13.947927183691
7	2273	81	13.884608772129
7	2275	82	13.932486002932
7	2388	83	13.933768573357
7	2390	84	13.982790281298
7	2506	85	13.883384850675
7	2508	86	13.990208008899
7	2623	87	13.960943002203
7	2625	88	13.999323605334
7	2745	89	13.898829272678
7	2747	90	13.923322260124
7	2870	91	13.97501944537
7	2872	92	13.884102251558
7	2997	93	13.933503699079
7	2999	94	13.929935510485
7	3129	95	13.932084917249
7	3131	96	13.988024637371
7	3264	97	13.905199357776
7	3266	98	13.983067730833
7	3401	99	13.914689087677
7	3403	100	13.959573372188
7	3543	101	13.923151327679
7	3545	102	13.932330102022
7	3685	103	13.918786156045
7	3687	104	13.941547459932
7	3829	105	13.993384758611
7	3831	106	13.9334619325
7	3975	107	13.965882125574
7	3977	108	13.965947124253
7	4121	109	13.962241288945
7	4123	110	13.920445105487
7	4395	111	13.900235885235
7	4397	112	13.927397497708
7	4398	113	13.881139268694
7	4399	114	13.958390111653
7	4400	115	13.981258456206
7	4401	116	13.984943927396
7	4402	117	13.922500399102
7	4403	118	13.970498575137
7	4404	119	13.977092044705
7	4405	120	13.902077802429
7	4406	121	13.948530204676
7	4407	122	13.937833442583
7	4408	123	13.893066050755
7	4409	124	13.87004156227
7	4410	125	13.968004257404
7	4411	126	13.928819306882
7	4412	127	13.940418895127
7	4413	128	13.885829770393
7	4414	129	13.911612131749
7	4415	130	13.982987889522
7	4416	131	13.906395649859
7	4417	132	13.981866144668
7	4418	133	13.928634459185
7	4419	134	13.90009441277
7	4420	135	13.90528861128
7	4421	136	13.973518176838
7	4422	137	13.924807656489
7	4423	138	13.942096447786
7	4424	139	13.933840963931
7	4425	140	13.933469208681
7	4426	141	13.907491463344
7	4427	142	13.878026930129
7	4428	143	13.948313778332
7	4429	144	13.873854416783
7	4430	145	13.963481205879
7	4431	146	13.912713737588
7	4432	147	13.942506781972
7	4433	148	13.972165655468
7	4434	149	13.891318765867
7	4435	150	13.956205403581
7	4436	151	13.983408746312
7	4437	152	13.962169502974
7	4438	153	13.920104354369
7	4439	154	13.976492808063
7	4440	155	13.931876468698
7	4441	156	13.995562241171
7	4442	157	13.937091327528
7	4443	158	13.971985867338
7	4444	159	13.924210300972
7	4445	160	13.976282691353
7	4446	161	13.880763591561
7	4447	162	13.883516404654
7	4448	163	13.902039464698
7	4449	164	13.958416926514
7	4450	165	13.904538255495
7	4451	166	13.879717949226
7	4452	167	13.948257389986
7	4453	168	13.950506998638
7	4454	169	13.997777129177
7	4455	170	13.903268834662
7	4456	171	13.883779694645
7	4457	172	13.950488013227
7	4458	173	13.925224270071
7	4459	174	13.975011580326
7	4460	175	13.914833555461
7	4461	176	13.879775854058
7	4462	177	13.944214367676
7	4463	178	13.910662185913
7	4464	179	13.960698127192
7	4465	180	13.925413794534
7	4466	181	13.937814194597
7	4467	182	13.988042107779
7	4468	183	13.889501406359
7	4469	184	13.902104643108
7	4470	185	13.929814810422
7	4471	186	13.99953793895
7	4472	187	13.934898153471
7	4473	188	13.887609400889
7	4474	189	13.998556903657
7	4475	190	13.918024571533
7	4476	191	13.930431651317
7	4477	192	13.963718024339
7	4478	193	13.958622450179
7	4479	194	13.900826457455
7	4480	195	13.889561516214
7	4481	196	13.95229925503
7	4482	197	13.879606535018
7	4483	198	13.973828812069
7	4484	199	13.942100925269
7	4485	200	13.907011976743
8	41	6	1.7932460927567
8	60	7	1.9587017235276
8	62	8	1.7806746143266
8	86	9	1.8842620940111
8	88	10	1.9413380167005
8	117	11	0.5583961215709
8	119	12	-0.073857417434921
8	148	13	0.0092065779981212
8	150	14	0.10214026641101
8	181	15	-0.096765000070445
8	183	16	-0.0036033386224883
8	216	17	0.039975998615846
8	218	18	-0.036115438612178
8	251	19	0.074191348995083
8	253	20	-0.018364551486448
8	288	21	-0.84955461610103
8	290	22	-1.1580047743662
8	327	23	-4.4608324981877
8	329	24	0.38092674279862
8	366	25	1.7156944106473
8	368	26	2.0360211738362
8	407	27	1.9703013633797
8	409	28	0.39196811840698
8	450	29	-0.054819778876846
8	452	30	0.010270397982096
8	493	31	0.056614504742901
8	495	32	-0.029954661100637
8	538	33	-0.016613695521373
8	540	34	-0.030163104203529
8	588	35	0.018933158169965
8	590	36	-0.029659791311714
8	635	37	0.091685234303586
8	637	38	-0.045763628156855
8	684	39	-0.039857979963999
8	686	40	0.065247988859191
8	735	41	-0.08489584519295
8	737	42	-0.0022564603248618
8	786	43	0.045091817758511
8	788	44	-0.0043246553349299
8	839	45	0.029991914208512
8	841	46	0.015533079409506
8	897	47	-0.0495849183877
8	899	48	0.0027827199501917
8	952	49	-0.024452327373437
8	954	50	0.067736270520836
8	1009	51	-0.053276539789513
8	1011	52	0.063070073074195
8	1071	53	-0.0090693579427903
8	1073	54	0.024193826443517
8	1136	55	-0.037865431425162
8	1138	56	-0.058954789221753
8	1203	57	0.065368110591081
8	1205	58	-0.024500538792926
8	1275	59	0.048295230567454
8	1277	60	-0.027506586005911
8	1350	61	-3.7945064249811e-05
8	1352	62	-0.040341942564119
8	1427	63	0.08445247764932
8	1429	64	-0.065610413609539
8	1512	65	0.021565600365866
8	1514	66	0.0028431761614058
8	1600	67	-0.024848260174041
8	1602	68	0.044910243332852
8	1690	69	-0.10373160347343
8	1692	70	0.072071757072118
8	1785	71	-0.0031103654555054
8	1787	72	-0.02690946418792
8	1877	73	-0.0079017184418628
8	1879	74	-0.16497366318824
8	1971	75	-1.6848926053673
8	1973	76	-4.4892687861132
8	2070	77	0.28405570139177
8	2072	78	1.997470962787
8	2169	79	2.0988350649318
8	2171	80	1.9988427420706
8	2273	81	-0.063318411561289
8	2275	82	0.04787723080255
8	2388	83	0.0012825704249551
8	2390	84	0.049021707940847
8	2506	85	-0.099405430622864
8	2508	86	0.10682315822458
8	2623	87	-0.029265006696805
8	2625	88	0.038380603131372
8	2745	89	-0.1004943326558
8	2747	90	0.024492987445557
8	2870	91	0.05169718524674
8	2872	92	-0.090917193812784
8	2997	93	0.049401447521522
8	2999	94	-0.0035681885946541
8	3129	95	0.0021494067646568
8	3131	96	0.055939720121678
8	3264	97	-0.082825279594399
8	3266	98	0.077868373056408
8	3401	99	-0.068378643156029
8	3403	100	0.044884284511209
8	3543	101	-0.036422044509091
8	3545	102	0.0091787743428728
8	3685	103	-0.013543945976998
8	3687	104	0.022761303887236
8	3829	105	0.051837298679166
8	3831	106	-0.059922826110851
8	3975	107	0.032420193073339
8	3977	108	6.4998678864114e-05
8	4121	109	-0.0037058353074837
8	4123	110	-0.041796183458063
8	4395	111	-0.020209220252001
8	4397	112	0.02716161247343
8	4398	113	-0.04625822901493
8	4399	114	0.07725084295962
8	4400	115	0.022868344553281
8	4401	116	0.003685471189673
8	4402	117	-0.062443528294096
8	4403	118	0.04799817603547
8	4404	119	0.0065934695675978
8	4405	120	-0.075014242276085
8	4406	121	0.046452402246651
8	4407	122	-0.010696762092412
8	4408	123	-0.044767391828353
8	4409	124	-0.023024488484953
8	4410	125	0.097962695134338
8	4411	126	-0.039184950522614
8	4412	127	0.011599588245154
8	4413	128	-0.054589124734047
8	4414	129	0.025782361356541
8	4415	130	0.071375757772476
8	4416	131	-0.076592239663006
8	4417	132	0.075470494809561
8	4418	133	-0.053231685482897
8	4419	134	-0.028540046415291
8	4420	135	0.0051941985101429
8	4421	136	0.068229565557559
8	4422	137	-0.048710520348978
8	4423	138	0.017288791297469
8	4424	139	-0.0082554838550273
8	4425	140	-0.00037175524979816
8	4426	141	-0.025977745337878
8	4427	142	-0.029464533214922
8	4428	143	0.070286848202812
8	4429	144	-0.074459361548069
8	4430	145	0.089626789095345
8	4431	146	-0.050767468290868
8	4432	147	0.029793044384569
8	4433	148	0.029658873495645
8	4434	149	-0.080846889601089
8	4435	150	0.064886637714226
8	4436	151	0.027203342730646
8	4437	152	-0.02123924333835
8	4438	153	-0.042065148605035
8	4439	154	0.056388453694527
8	4440	155	-0.044616339365021
8	4441	156	0.063685772472526
8	4442	157	-0.058470913642086
8	4443	158	0.03489453980932
8	4444	159	-0.047775566366035
8	4445	160	0.052072390380781
8	4446	161	-0.095519099792
8	4447	162	0.0027528130938297
8	4448	163	0.018523060043808
8	4449	164	0.056377461815718
8	4450	165	-0.053878671019337
8	4451	166	-0.024820306268522
8	4452	167	0.068539440759924
8	4453	168	0.0022496086521997
8	4454	169	0.047270130538383
8	4455	170	-0.09450829451438
8	4456	171	-0.019489140016958
8	4457	172	0.066708318581805
8	4458	173	-0.025263743156103
8	4459	174	0.049787310254761
8	4460	175	-0.060178024864291
8	4461	176	-0.035057701403275
8	4462	177	0.064438513617498
8	4463	178	-0.033552181762644
8	4464	179	0.050035941279495
8	4465	180	-0.03528433265863
8	4466	181	0.012400400063488
8	4467	182	0.050227913181299
8	4468	183	-0.098540701419116
8	4469	184	0.012603236748838
8	4470	185	0.027710167313925
8	4471	186	0.069723128527404
8	4472	187	-0.064639785478358
8	4473	188	-0.047288752582389
8	4474	189	0.11094750276767
8	4475	190	-0.080532332123257
8	4476	191	0.012407079783733
8	4477	192	0.033286373021546
8	4478	193	-0.0050955741596397
8	4479	194	-0.057795992724133
8	4480	195	-0.011264941240661
8	4481	196	0.062737738816068
8	4482	197	-0.072692720012274
8	4483	198	0.094222277051303
8	4484	199	-0.031727886800654
8	4485	200	-0.035088948525953
9	41	6	3.9274001426868
9	60	7	5.2041356246368
9	62	8	5.7574507674447
9	86	9	7.0006276784153
9	88	10	8.2432295261252
9	117	11	3.9110016848773
9	119	12	1.7792042638201
9	148	13	2.0579365757541
9	150	14	2.3818636967155
9	181	15	1.7037407999188
9	183	16	2.0152488537881
9	216	17	2.1655550639215
9	218	18	1.906797412239
9	251	19	2.2849654495652
9	253	20	1.9716653983805
9	288	21	0.973
9	290	22	0.973
9	327	23	0.973
9	329	24	2.2554772362628
9	366	25	5.6120472675651
9	368	26	7.5119842129131
9	407	27	8.4455276517466
9	409	28	3.3560730035355
9	450	29	1.8466200733259
9	452	30	2.0660268329645
9	493	31	2.2281549844786
9	495	32	1.9335288120447
9	538	33	1.9767670407741
9	540	34	1.9283950769156
9	588	35	2.0949799016024
9	590	36	1.9290667558988
9	635	37	2.3468857079218
9	637	38	1.8793040227889
9	684	39	1.8954681876561
9	686	40	2.2553467174174
9	735	41	1.7429567241042
9	737	42	2.0192482635441
9	786	43	2.1827359052182
9	788	44	2.0164367628106
9	839	45	2.1348602115454
9	841	46	2.0878872407227
9	897	47	1.8642059318509
9	899	48	2.0401536442479
9	952	49	1.9464315106901
9	954	50	2.2632042711189
9	1009	51	1.851180617826
9	1011	52	2.2486511283506
9	1071	53	2.0047870143605
9	1073	54	2.1193583924862
9	1136	55	1.9065956504161
9	1138	56	1.8305118457369
9	1203	57	2.2544630998412
9	1205	58	1.9497933768092
9	1275	59	2.199742909699
9	1277	60	1.9416842431598
9	1350	61	2.0340583936544
9	1352	62	1.8947902862501
9	1427	63	2.3236156337703
9	1429	64	1.8116807487081
9	1512	65	2.1067187558746
9	1514	66	2.0440470145686
9	1600	67	1.9485115452067
9	1602	68	2.1878187851485
9	1690	69	1.6791237400594
9	1692	70	2.2755265645048
9	1785	71	2.0225291815531
9	1787	72	1.9399893034582
9	1877	73	2.0029455902709
9	1879	74	1.4663345211208
9	1971	75	0.973
9	1973	76	0.973
9	2070	77	2.0711335261948
9	2072	78	6.4152831024102
9	2169	79	7.8881081638602
9	2171	80	8.7525284671264
9	2273	81	1.815189301835
9	2275	82	2.1926999225795
9	2388	83	2.0363789456198
9	2390	84	2.2022797105907
9	2506	85	1.6943401481553
9	2508	86	2.3980130110749
9	2623	87	1.9363832529257
9	2625	88	2.1682681767827
9	2745	89	1.6918937064968
9	2747	90	2.1131931668759
9	2870	91	2.2104031609639
9	2872	92	1.7227981158715
9	2997	93	2.1979337916806
9	2999	94	2.0197021153789
9	3129	95	2.0391171435245
9	3131	96	2.2261991945464
9	3264	97	1.7515996111392
9	3266	98	2.2995223407801
9	3401	99	1.8008227620704
9	3403	100	2.1857101524767
9	3543	101	1.9087755896745
9	3545	102	2.0627447358658
9	3685	103	1.9851118107104
9	3687	104	2.1093420628985
9	3829	105	2.2129857683168
9	3831	106	1.8308220216017
9	3975	107	2.1444722311404
9	3977	108	2.0355784928867
9	4121	109	2.0225109202385
9	4123	110	1.8904941269999
9	4395	111	1.9609544694714
9	4397	112	2.1225900669388
9	4398	113	1.8719619172019
9	4399	114	2.2944565722334
9	4400	115	2.1139814038152
9	4401	116	2.0497258004765
9	4402	117	1.8214044611061
9	4403	118	2.1974299774128
9	4404	119	2.0587102346889
9	4405	120	1.7775142086521
9	4406	121	2.1897334323985
9	4407	122	1.996556277867
9	4408	123	1.8780334086171
9	4409	124	1.9486210960065
9	4410	125	2.3653409168875
9	4411	126	1.9000292435893
9	4412	127	2.0717212867176
9	4413	128	1.8445072379646
9	4414	129	2.1162534272185
9	4415	130	2.2776331997634
9	4416	131	1.7725872185708
9	4417	132	2.2912967597894
9	4418	133	1.8528600408083
9	4419	134	1.9330331343468
9	4420	135	2.0465755532814
9	4421	136	2.2659055273814
9	4422	137	1.8676913138819
9	4423	138	2.0910132406566
9	4424	139	2.0043570379106
9	4425	140	2.030793134949
9	4426	141	1.9423234639898
9	4427	142	1.927848582712
9	4428	143	2.2698294292933
9	4429	144	1.7770096234678
9	4430	145	2.3367194719381
9	4431	146	1.859703679116
9	4432	147	2.1330729430549
9	4433	148	2.1358660794021
9	4434	149	1.7570872917791
9	4435	150	2.2526062298388
9	4436	151	2.1288224415809
9	4437	152	1.9635057791053
9	4438	153	1.8895605130103
9	4439	154	2.2263741095757
9	4440	155	1.882075928944
9	4441	156	2.2532002763803
9	4442	157	1.8360167560027
9	4443	158	2.1534761844155
9	4444	159	1.8707748688179
9	4445	160	2.211812015765
9	4446	161	1.7071373030442
9	4447	162	2.0361644423435
9	4448	163	2.090897582556
9	4449	164	2.2242422079567
9	4450	165	1.8485453953928
9	4451	166	1.9435434161483
9	4452	167	2.2639487509947
9	4453	168	2.04134454436
9	4454	169	2.1980837882338
9	4455	170	1.7122954482887
9	4456	171	1.9617700101395
9	4457	172	2.2580571351396
9	4458	173	1.9464158018033
9	4459	174	2.2039698413109
9	4460	175	1.8283356700218
9	4461	176	1.9093046019252
9	4462	177	2.2496876104686
9	4463	178	1.9172335011079
9	4464	179	2.2031702198692
9	4465	180	1.9128046296068
9	4466	181	2.0741380357498
9	4467	182	2.206946044161
9	4468	183	1.6977101226333
9	4469	184	2.0710706900758
9	4470	185	2.1246940168337
9	4471	186	2.2740383306431
9	4472	187	1.8151068318442
9	4473	188	1.869098500666
9	4474	189	2.4129979409229
9	4475	190	1.7603412831536
9	4476	191	2.0733850188152
9	4477	192	2.1471488825316
9	4478	193	2.0174689976898
9	4479	194	1.8350922917858
9	4480	195	1.9898603202048
9	4481	196	2.2449202398961
9	4482	197	1.7834002454186
9	4483	198	2.3534778961154
9	4484	199	1.9263154075013
9	4485	200	1.9117406178101
10	60	7	2414.8848622198
10	62	8	2412.0691307599
10	86	9	2407.3819784434
10	88	10	2402.4639103656
10	117	11	2396.2016479742
10	119	12	2388.5021761758
10	148	13	2379.5347220144
10	150	14	2369.7521497252
10	181	15	2359.9648396304
10	183	16	2350.1637192596
10	216	17	2340.717056727
10	218	18	2334.4889366638
10	251	19	2338.0188398167
10	253	20	2348.6970945761
10	288	21	2359.0578910074
10	290	22	2372.1753142256
10	327	23	2385.9847009928
10	329	24	2399.0560799135
10	366	25	2411.469456295
10	368	26	2420.8240344936
10	407	27	2428.2511095385
10	409	28	2431.5096723901
10	450	29	2433.2168502312
10	452	30	2435.2011956087
10	493	31	2437.29147981
10	495	32	2438.672857787
10	538	33	2439.5458305131
10	540	34	2440.5569901068
10	588	35	2441.5662171456
10	590	36	2442.5764760413
10	635	37	2443.5864360537
10	637	38	2444.5969193554
10	684	39	2445.6077267987
10	686	40	2446.6171177449
10	735	41	2447.6285385494
10	737	42	2448.6389437378
10	786	43	2449.6489775468
10	788	44	2450.659299592
10	839	45	2449.5461587089
10	841	46	2448.4337074455
10	897	47	2447.3207898499
10	899	48	2446.207873206
10	952	49	2445.0940501215
10	954	50	2443.9833638043
10	1009	51	2442.8694501355
10	1011	52	2441.7571938549
10	1071	53	2440.6460889142
10	1073	54	2439.6824932018
10	1136	55	2438.741084579
10	1138	56	2437.8178922307
10	1203	57	2432.628875918
10	1205	58	2422.099758557
10	1275	59	2408.9617932498
10	1277	60	2395.0275024913
10	1350	61	2381.1194986589
10	1352	62	2367.2108877165
10	1427	63	2353.2913366285
10	1429	64	2339.3363710896
10	1512	65	2325.3913249692
10	1514	66	2311.4476897647
10	1600	67	2297.4983647275
10	1602	68	2283.5801531249
10	1690	69	2269.6389171832
10	1692	70	2255.7127677456
10	1785	71	2241.8359768615
10	1787	72	2228.0496562888
10	1877	73	2214.3204117303
10	1879	74	2201.1356404887
10	1971	75	2187.9527212165
10	1973	76	2175.0638567568
10	2070	77	2163.8270147669
10	2072	78	2153.0802669595
10	2169	79	2145.0715277719
10	2171	80	2138.8791204049
10	2273	81	2132.1538470712
10	2275	82	2124.1794652122
10	2388	83	2114.9682953636
10	2390	84	2105.4503674875
10	2506	85	2095.9174355941
10	2508	86	2086.3855086367
10	2623	87	2076.854366392
10	2625	88	2067.3279705069
10	2745	89	2057.7989259652
10	2747	90	2048.2657166205
10	2870	91	2038.283265963
10	2872	92	2028.2931978384
10	2997	93	2018.3027401837
10	2999	94	2008.3179219114
10	3129	95	1998.3240517773
10	3131	96	1988.3419555381
10	3264	97	1978.344027573
10	3266	98	1968.3550932935
10	3401	99	1958.3543494703
10	3403	100	1948.3578532202
10	3543	101	1938.3583427321
10	3545	102	1928.618618476
10	3685	103	1918.8845092345
10	3687	104	1909.1398994639
10	3829	105	1899.4163005566
10	3831	106	1889.6917406092
10	3975	107	1879.9546263734
10	3977	108	1870.2146439165
10	4121	109	1860.4817766254
10	4123	110	1850.7588696732
10	4395	111	1841.0270894129
10	4397	112	1831.0817296832
10	4398	113	1820.9827286402
10	4399	114	1810.8857373192
10	4400	115	1800.9095892153
10	4401	116	1790.9641635513
10	4402	117	1781.0157404179
10	4403	118	1771.0520895839
10	4404	119	1761.0958624202
10	4405	120	1751.1472190667
10	4406	121	1741.1866997886
10	4407	122	1731.2337222014
10	4408	123	1721.2648128434
10	4409	124	1711.2987581504
10	4410	125	1701.3391836241
10	4411	126	1691.3841495712
10	4412	127	1681.4204026073
10	4413	128	1671.4775354349
10	4414	129	1661.510947821
10	4415	130	1651.5625195977
10	4416	131	1641.6257705317
10	4417	132	1631.659872483
10	4418	133	1621.7159509698
10	4419	134	1611.9115374982
10	4420	135	1602.1021759917
10	4421	136	1592.291592988
10	4422	137	1582.4770308963
10	4423	138	1572.6518783064
10	4424	139	1562.8318323046
10	4425	140	1552.4442485711
10	4426	141	1541.8906131162
10	4427	142	1531.3348272494
10	4428	143	1520.7834167578
10	4429	144	1510.214847654
10	4430	145	1499.2494909836
[...]
286	4458	173	1579.5296630953
286	4459	174	1581.499172586
286	4460	175	1586.4892162522
286	4461	176	1592.9214445446
286	4462	177	1600.7209945945
286	4463	178	1609.4889420131
286	4464	179	1617.8574805791
286	4465	180	1625.7946901591
286	4466	181	1633.4151652353
286	4467	182	1640.8157849349
286	4468	183	1648.1837537922
286	4469	184	1656.0115692755
286	4470	185	1665.6187695134
286	4471	186	1673.8163920902
286	4472	187	1679.8778217845
286	4473	188	1686.3162143966
286	4474	189	1692.6861032601
286	4475	190	1695.1084609656
286	4476	191	1696.4843548508
286	4477	192	1697.5853411006
286	4478	193	1698.4783894597
286	4479	194	1699.3506257348
286	4480	195	1700.0838108668
286	4481	196	1700.8395789107
286	4482	197	1701.8178298185
286	4483	198	1710.7493965374
286	4484	199	1722.2272939486
286	4485	200	1734.2450735746
287	4458	173	4.0631847788148
287	4459	174	5.9995412563473
287	4460	175	7.8533518519589
287	4461	176	9.9694589482608
287	4462	177	11.866154085145
287	4463	178	12.128184944274
287	4464	179	11.54381212377
287	4465	180	10.968945760394
287	4466	181	10.552960455774
287	4467	182	10.29578888041
287	4468	183	10.021233982112
287	4469	184	9.775235105508
287	4470	185	9.7783707290955
287	4471	186	9.6402758591654
287	4472	187	9.5729429067332
287	4473	188	9.6355037339576
287	4474	189	9.4827990176947
287	4475	190	9.4848709769153
287	4476	191	9.4917106724148
287	4477	192	9.4865687675358
287	4478	193	9.487661507086
287	4479	194	8.5905930978652
287	4480	195	8.05842115094
287	4481	196	6.7418178806485
287	4482	197	8.3805533899049
287	4483	198	10.551489904589
287	4484	199	12.308097306318
287	4485	200	12.026838841054
288	4459	174	1.9363564775325
288	4460	175	1.8538105956116
288	4461	176	2.1161070963019
288	4462	177	1.8966951368842
288	4463	178	0.26203085912908
288	4464	179	-0.5843728205043
288	4465	180	-0.57486636337576
288	4466	181	-0.41598530462031
288	4467	182	-0.25717157536398
288	4468	183	-0.27455489829773
288	4469	184	-0.24599887660402
288	4470	185	0.0031356235875712
288	4471	186	-0.1380948699301
288	4472	187	-0.067332952432203
288	4473	188	0.062560827224404
288	4474	189	-0.15270471626295
288	4475	190	0.002071959220622
288	4476	191	0.0068396954995524
288	4477	192	-0.005141904879066
288	4478	193	0.0010927395502041
288	4479	194	-0.89706840922083
288	4480	195	-0.53217194692513
288	4481	196	-1.3166032702915
288	4482	197	1.6387355092564
288	4483	198	2.170936514684
288	4484	199	1.756607401729
288	4485	200	-0.28125846526345
289	4459	174	4.2191245201102
289	4460	175	5.0422190845387
289	4461	176	6.7667044788304
289	4462	177	7.2608327506901
289	4463	178	2.6257528006896
289	4464	179	0.973
289	4465	180	0.973
289	4466	181	0.973
289	4467	182	0.973
289	4468	183	0.973
289	4469	184	0.973
289	4470	185	1.6754698182512
289	4471	186	1.3369741257495
289	4472	187	1.4974981128732
289	4473	188	1.8027338017435
289	4474	189	1.2972397014406
289	4475	190	1.6511119157392
289	4476	191	1.6625221357327
289	4477	192	1.6347442106949
289	4478	193	1.6490785066122
289	4479	194	0.973
289	4480	195	0.973
289	4481	196	0.973
289	4482	197	4.8784278460525
289	4483	198	7.2480190872425
289	4484	199	7.0865264046781
289	4485	200	0.973
290	4460	175	2414.8507656208
290	4461	176	2411.9166085786
290	4462	177	2407.311591176
290	4463	178	2402.3521297106
290	4464	179	2395.9970766972
290	4465	180	2388.3161530445
290	4466	181	2379.3232352471
290	4467	182	2370.1374710435
290	4468	183	2360.9389348873
290	4469	184	2351.8163392271
290	4470	185	2343.1936224323
290	4471	186	2336.0378607393
290	4472	187	2333.8774951611
290	4473	188	2339.1638988096
290	4474	189	2347.1068353503
290	4475	190	2354.6256950201
290	4476	191	2362.2784348932
290	4477	192	2371.9806414358
290	4478	193	2381.6281726137
290	4479	194	2391.1405425139
290	4480	195	2399.5621522778
290	4481	196	2408.0096064961
290	4482	197	2415.6724049152
290	4483	198	2423.2132052033
290	4484	199	2430.2786164482
290	4485	200	2431.935421073
291	4460	175	1578.4602128109
291	4461	176	1579.5376199633
291	4462	177	1581.4018611619
291	4463	178	1586.4251123844
291	4464	179	1592.8619055804
291	4465	180	1600.6416230751
291	4466	181	1609.7502098912
291	4467	182	1619.0541235488
291	4468	183	1628.3709734352
291	4469	184	1637.6109060617
291	4470	185	1646.3445302621
291	4471	186	1655.4666296374
291	4472	187	1666.1654852172
291	4473	188	1674.7693340909
291	4474	189	1681.3615953792
291	4475	190	1688.1422913559
291	4476	191	1694.1646441147
291	4477	192	1695.6148175765
291	4478	193	1696.9189535957
291	4479	194	1697.937848717
291	4480	195	1698.7341681588
291	4481	196	1699.532931366
291	4482	197	1700.2575001279
291	4483	198	1700.9315664489
291	4484	199	1702.9949074807
291	4485	200	1712.5587242646
292	4461	176	3.902580489948
292	4462	177	5.8199849037766
292	4463	178	8.0625432261858
292	4464	179	9.8568281443823
292	4465	180	11.866019668373
292	4466	181	13.105884790412
292	4467	182	13.041504885508
292	4468	183	13.041884611953
292	4469	184	12.729845704138
292	4470	185	11.962938912371
292	4471	186	11.280746076516
292	4472	187	10.851871642446
292	4473	188	10.556701065733
292	4474	189	10.145056951114
292	4475	190	9.978683570059
292	4476	191	9.8170553090016
292	4477	192	9.736742044619
292	4478	193	9.7145334651041
292	4479	194	9.1511351881868
292	4480	195	8.4708627647492
292	4481	196	7.8122364685183
292	4482	197	8.2295839735456
292	4483	198	6.4439323435113
292	4484	199	8.6138990679424
292	4485	200	10.685949518701
293	4462	177	1.9174044138286
293	4463	178	2.2425583224092
293	4464	179	1.7942849181965
293	4465	180	2.0091915239906
293	4466	181	1.2398651220391
293	4467	182	-0.064379904903472
293	4468	183	0.0003797264443719
293	4469	184	-0.31203890781473
293	4470	185	-0.76690679176682
293	4471	186	-0.68219283585532
293	4472	187	-0.42887443407001
293	4473	188	-0.29517057671244
293	4474	189	-0.41164411461904
293	4475	190	-0.16637338105546
293	4476	191	-0.16162826105736
293	4477	192	-0.080313264382646
293	4478	193	-0.022208579514903
293	4479	194	-0.56339827691729
293	4480	195	-0.68027242343763
293	4481	196	-0.6586262962309
293	4482	197	0.41734750502733
293	4483	198	-1.7856516300343
293	4484	199	2.1699667244311
293	4485	200	2.0720504507585
294	4462	177	4.0983500623511
294	4463	178	5.9048074223586
294	4464	179	5.9362768872955
294	4465	180	7.5824667052674
294	4466	181	5.8663206102323
294	4467	182	1.7416825211443
294	4468	183	1.9452584677808
294	4469	184	0.973
294	4470	185	0.973
294	4471	186	0.973
294	4472	187	0.973
294	4473	188	0.973
294	4474	189	0.973
294	4475	190	1.2830559323375
294	4476	191	1.2885777766068
294	4477	192	1.4765143784437
294	4478	193	1.611325560203
294	4479	194	0.973
294	4480	195	0.973
294	4481	196	0.973
294	4482	197	2.3862208856791
294	4483	198	0.973
294	4484	199	6.089319699324
294	4485	200	7.0743932678517
295	4463	178	2414.845651646
295	4464	179	2411.8052859687
295	4465	180	2407.1980541121
295	4466	181	2402.4702562084
295	4467	182	2396.4284617362
295	4468	183	2389.1494465446
295	4469	184	2380.5461009459
295	4470	185	2371.6687005891
295	4471	186	2362.814266327
295	4472	187	2353.9496157488
295	4473	188	2345.0791371617
295	4474	189	2337.062536558
295	4475	190	2333.8823984745
295	4476	191	2340.618640716
295	4477	192	2350.2095796211
295	4478	193	2359.4579203859
295	4479	194	2370.5458689034
295	4480	195	2380.9565187059
295	4481	196	2390.8641278998
295	4482	197	2399.7894716988
295	4483	198	2408.4249074296
295	4484	199	2416.5903007021
295	4485	200	2423.9593518162
296	4463	178	1578.4620906357
296	4464	179	1579.5784970447
296	4465	180	1581.5168585666
296	4466	181	1586.3054665159
296	4467	182	1592.4249719661
296	4468	183	1599.7976115588
296	4469	184	1608.5116154067
296	4470	185	1617.5031989701
296	4471	186	1626.4715210432
296	4472	187	1635.4501908366
296	4473	188	1644.4347636001
296	4474	189	1654.1548851067
296	4475	190	1666.0960216122
296	4476	191	1675.9441256644
296	4477	192	1684.159727877
296	4478	193	1692.5001132246
296	4479	194	1695.4003643962
296	4480	195	1696.8390117912
296	4481	196	1697.9117118698
296	4482	197	1698.7556627281
296	4483	198	1699.5722008431
296	4484	199	1700.3442933047
296	4485	200	1700.9747731565
297	4464	179	4.0885431242836
297	4465	180	5.8312335044108
297	4466	181	7.6018188300225
297	4467	182	9.4338875167453
297	4468	183	11.167156285977
297	4469	184	12.651966990961
297	4470	185	12.664891141646
297	4471	186	12.610116668281
297	4472	187	12.594501812467
297	4473	188	12.59296224195
297	4474	189	12.593820524497
297	4475	190	12.665210515759
297	4476	191	12.57542728883
297	4477	192	12.642046168819
297	4478	193	12.139311120874
297	4479	194	11.306402458604
297	4480	195	10.100685136889
297	4481	196	9.5071986278891
297	4482	197	9.0669207618135
297	4483	198	7.5780719342604
297	4484	199	8.7650855301151
297	4485	200	6.6320092810384
298	4465	180	1.7426903801272
298	4466	181	1.7705853256118
298	4467	182	1.8320686867228
298	4468	183	1.7332687692321
298	4469	184	1.4848107049838
298	4470	185	0.012924150684849
298	4471	186	-0.054774473365397
298	4472	187	-0.015614855813329
298	4473	188	-0.0015395705169059
298	4474	189	0.00085828254697873
298	4475	190	0.07138999126153
298	4476	191	-0.089783226929139
298	4477	192	0.066618879989255
298	4478	193	-0.50273504794529
298	4479	194	-0.83290866226949
298	4480	195	-1.205717321715
298	4481	196	-0.59348650900023
298	4482	197	-0.44027786607561
298	4483	198	-1.4888488275531
298	4484	199	1.1870135958547
298	4485	200	-2.1330762490768
299	4465	180	3.8586660115823
299	4466	181	4.7610731706013
299	4467	182	5.807982688318
299	4468	183	6.4420705186075
299	4469	184	6.4347913025501
299	4470	185	1.9480642603649
299	4471	186	1.7370882829465
299	4472	187	1.85471407652
299	4473	188	1.8972950685894
299	4474	189	1.9046516265837
299	4475	190	2.1265510642023
299	4476	191	1.6282480100848
299	4477	192	2.1094708866251
299	4478	193	0.973
299	4479	194	0.973
299	4480	195	0.973
299	4481	196	0.973
299	4482	197	0.973
299	4483	198	0.973
299	4484	199	4.1024654415854
299	4485	200	0.973
300	4466	181	2414.8458276661
300	4467	182	2411.9446482578
300	4468	183	2407.3135280587
300	4469	184	2402.4812466792
300	4470	185	2396.3747360548
300	4471	186	2388.9841917993
300	4472	187	2381.1001986676
300	4473	188	2373.2299067961
300	4474	189	2365.3473441999
300	4475	190	2357.4688826787
300	4476	191	2349.5920035493
300	4477	192	2341.8762812882
300	4478	193	2335.2462161097
300	4479	194	2333.981153629
300	4480	195	2341.0200671674
300	4481	196	2349.5402840044
300	4482	197	2357.8712282606
300	4483	198	2367.8837946787
300	4484	199	2378.9709029059
300	4485	200	2390.1119695094
301	4466	181	1578.4620260019
301	4467	182	1579.5273239398
301	4468	183	1581.3998993672
301	4469	184	1586.2943346836
301	4470	185	1592.4793886803
301	4471	186	1599.9649918498
301	4472	187	1607.9503907505
301	4473	188	1615.9219121626
301	4474	189	1623.9058621284
301	4475	190	1631.8856582697
301	4476	191	1639.8638516665
301	4477	192	1647.992542631
301	4478	193	1656.9248029822
301	4479	194	1668.0021744473
301	4480	195	1676.2683016649
301	4481	196	1683.556140326
301	4482	197	1691.0691945236
301	4483	198	1695.0024683736
301	4484	199	1696.6026791986
301	4485	200	1697.8405902702
302	4467	182	3.9269539870051
302	4468	183	5.8002674975325
302	4469	184	7.7127356081488
302	4470	185	9.5175946492571
302	4471	186	11.172047769621
302	4472	187	11.222112760931
302	4473	188	11.237110601808
302	4474	189	11.223014450733
302	4475	190	11.224865988666
302	4476	191	11.252537847912
302	4477	192	11.219138078341
302	4478	193	11.200181706716
302	4479	194	11.21318813925
302	4480	195	11.228264632058
302	4481	196	11.258256208022
302	4482	197	11.17863644471
302	4483	198	11.157595734373
302	4484	199	11.213944389786
302	4485	200	11.26566456632
303	4468	183	1.8733135105274
303	4469	184	1.9124681106163
303	4470	185	1.8048590411083
303	4471	186	1.654453120364
303	4472	187	0.050064991309773
303	4473	188	0.014997840877621
303	4474	189	-0.01409615107579
303	4475	190	0.0018515379331063
303	4476	191	0.027671859245748
303	4477	192	-0.033399769570678
303	4478	193	-0.018956371624954
303	4479	194	0.01300643253373
303	4480	195	0.015076492808292
303	4481	196	0.029991575963797
303	4482	197	-0.07961976331193
303	4483	198	-0.021040710336528
303	4484	199	0.056348655412439
303	4485	200	0.051720176534726
304	4468	183	4.0264700178169
304	4469	184	5.0792829595244
304	4470	185	5.7886509309795
304	4471	186	6.232310610482
304	4472	187	1.9173128715772
304	4473	188	1.8237745913161
304	4474	189	1.7438590971807
304	4475	190	1.7871483396851
304	4476	191	1.8594853617298
304	4477	192	1.691356643062
304	4478	193	1.7289208891964
304	4479	194	1.8163171853456
304	4480	195	1.8232194020767
304	4481	196	1.8662940628765
304	4482	197	1.5638020964066
304	4483	198	1.7199814634886
304	4484	199	1.9335173751928
304	4485	200	1.9259590884933
305	4469	184	2414.8659803072
305	4470	185	2411.8497403887
305	4471	186	2407.19367617
305	4472	187	2402.2546455382
305	4473	188	2395.9417766988
305	4474	189	2388.3377681752
305	4475	190	2379.5936033784
305	4476	191	2370.5813471138
305	4477	192	2361.5634380431
305	4478	193	2352.547527067
305	4479	194	2343.5301164456
305	4480	195	2335.5804369914
305	4481	196	2334.0800450913
305	4482	197	2342.5340171643
305	4483	198	2351.73160097
305	4484	199	2360.6129223714
305	4485	200	2372.0895830923
306	4469	184	1578.4546260573
306	4470	185	1579.5621736133
306	4471	186	1581.5212928187
306	4472	187	1586.5238504214
306	4473	188	1592.9179168604
306	4474	189	1600.6197299259
306	4475	190	1609.4763642214
306	4476	191	1618.6045382405
306	4477	192	1627.7384377737
306	4478	193	1636.8703135122
306	4479	194	1646.0037081847
306	4480	195	1656.0522032296
306	4481	196	1668.6294288645
306	4482	197	1677.4909073319
306	4483	198	1685.5323248524
306	4484	199	1693.541722944
306	4485	200	1695.6311009135
307	4470	185	4.0831189165961
307	4471	186	6.0231934725328
307	4472	187	7.891952440331
307	4473	188	9.8740337577506
307	4474	189	11.514586912945
307	4475	190	12.886969563944
307	4476	191	12.775254835197
307	4477	192	12.852036737073
307	4478	193	12.843793071836
307	4479	194	12.83389829935
307	4480	195	12.778866284943
307	4481	196	12.637312277623
307	4482	197	12.380861506611
307	4483	198	12.111571444296
307	4484	199	11.868708210603
307	4485	200	11.736353989429
308	4471	186	1.9400745559367
308	4472	187	1.8687589677982
308	4473	188	1.9820813174197
308	4474	189	1.6405531551945
308	4475	190	1.3723826509992
308	4476	191	-0.11171472874703
308	4477	192	0.076781901875512
308	4478	193	-0.008243665236515
308	4479	194	-0.0098947724862946
308	4480	195	-0.055032014406752
308	4481	196	-0.14155400732061
308	4482	197	-0.25645077101118
308	4483	198	-0.26929006231589
308	4484	199	-0.24286323369302
308	4485	200	-0.13235422117319
309	4471	186	4.2369370870102
309	4472	187	5.0904209387123
309	4473	188	6.3918992915099
309	4474	189	6.3590560555307
309	4475	190	6.1916664847361
309	4476	191	1.5749380613208
309	4477	192	2.1639069288264
309	4478	193	1.8997953496367
309	4479	194	1.8937788457915
309	4480	195	1.7497445795536
309	4481	196	1.4749471896288
309	4482	197	0.973
309	4483	198	0.973
309	4484	199	0.973
309	4485	200	1.4511415971805
310	4472	187	2414.8757513213
310	4473	188	2412.0361360551
310	4474	189	2407.4214051443
310	4475	190	2402.5966667971
310	4476	191	2396.4300143193
310	4477	192	2388.9036915726
310	4478	193	2380.0020954288
310	4479	194	2370.6426547997
310	4480	195	2361.262512156
310	4481	196	2351.9047702637
310	4482	197	2342.6055761403
310	4483	198	2335.0945354523
310	4484	199	2334.9618278013
310	4485	200	2345.0416944089
311	4472	187	1578.451038192
311	4473	188	1579.493730098
311	4474	189	1581.2906347411
311	4475	190	1586.1774300048
311	4476	191	1592.423399413
311	4477	192	1600.0465274891
311	4478	193	1609.0626180507
311	4479	194	1618.5424420005
311	4480	195	1628.0432342403
311	4481	196	1637.5213376042
311	4482	197	1647.0589317121
311	4483	198	1657.8382827621
311	4484	199	1670.8622733187
311	4485	200	1679.5160075128
312	4473	188	3.8804163187024
312	4474	189	5.817040498874
312	4475	190	7.6459528622034
312	4476	191	9.6906429893596
312	4477	192	11.606719386445
312	4478	193	13.368600510827
312	4479	194	13.28201728723
312	4480	195	13.353291114026
312	4481	196	13.328873075738
312	4482	197	13.383455119096
312	4483	198	13.297745379687
312	4484	199	13.32958400463
312	4485	200	13.314726152935
313	4474	189	1.9366241801716
313	4475	190	1.8289123633294
313	4476	191	2.0446901271562
313	4477	192	1.9160763970856
313	4478	193	1.7618811243817
313	4479	194	-0.086583223596682
313	4480	195	0.071273826796096
313	4481	196	-0.024418038288131
313	4482	197	0.054582043357659
313	4483	198	-0.085709739408921
313	4484	199	0.031838624943047
313	4485	200	-0.01485785169527
314	4474	189	4.1237641255823
314	4475	190	4.8902233506552
314	4476	191	6.4368058243494
314	4477	192	7.1740387051116
314	4478	193	7.6521018786507
314	4479	194	1.6900281460165
314	4480	195	2.2034890686141
314	4481	196	1.8933002705452
314	4482	197	2.1531183815004
314	4483	198	1.6940278431987
314	4484	199	2.0740859654476
314	4485	200	1.9226824735298
315	4475	190	2414.8650613014
315	4476	191	2411.8313019879
315	4477	192	2407.124552844
315	4478	193	2401.9996624849
315	4479	194	2395.3239562415
315	4480	195	2387.2831514617
315	4481	196	2377.919520708
315	4482	197	2368.3464164902
315	4483	198	2358.789245158
315	4484	199	2349.2414220867
315	4485	200	2340.1033399801
316	4475	190	1578.4549635118
316	4476	191	1579.5689440984
316	4477	192	1581.5913052252
316	4478	193	1586.7821131265
316	4479	194	1593.5436838698
316	4480	195	1601.687911367
316	4481	196	1611.1719793361
316	4482	197	1620.8682150664
316	4483	198	1630.5483129788
316	4484	199	1640.2189423898
316	4485	200	1650.2621834502
317	4476	191	4.1349495721361
317	4477	192	6.0716839491981
317	4478	193	8.3020552311358
317	4479	194	10.400064024849
317	4480	195	12.427143237808
317	4481	196	13.539558347476
317	4482	197	13.545396598827
317	4483	198	13.618747223339
317	4484	199	13.603274421499
317	4485	200	13.586088463225
318	4477	192	1.9367343770619
318	4478	193	2.2303712819377
318	4479	194	2.0980087937135
318	4480	195	2.0270792129589
318	4481	196	1.1124151096677
318	4482	197	0.0058382513513795
318	4483	198	0.073350624511949
318	4484	199	-0.015472801839932
318	4485	200	-0.01718595827464
319	4477	192	4.2575522418093
319	4478	193	6.0258678371106
319	4479	194	6.9740962970096
319	4480	195	7.9577600550767
319	4481	196	5.6222866984587
319	4482	197	2.012075860777
319	4483	198	2.2410510777876
319	4484	199	1.9480389852312
319	4485	200	1.9407844726519
320	4478	193	2414.8548644851
320	4479	194	2411.680870802
320	4480	195	2406.7494759384
320	4481	196	2401.5163988242
320	4482	197	2394.8248928592
320	4483	198	2386.8123283826
320	4484	199	2377.473866021
320	4485	200	2367.6814751487
321	4478	193	1578.4587077294
321	4479	194	1579.624181645
321	4480	195	1581.9712064583
321	4481	196	1587.2715926375
321	4482	197	1594.0491663218
321	4483	198	1602.164790283
321	4484	199	1611.623366138
321	4485	200	1621.5417090394
322	4479	194	4.3785919786299
322	4480	195	6.4091077215372
322	4481	196	8.4315614050519
322	4482	197	10.39082506989
322	4483	198	12.274772594588
322	4484	199	13.883126223891
322	4485	200	13.918090396861
323	4480	195	2.0305157429073
323	4481	196	2.0224536835146
323	4482	197	1.9592636648379
323	4483	198	1.8839475246984
323	4484	199	1.6083536293023
323	4485	200	0.034964172970504
324	4480	195	4.57981984376
324	4481	196	5.6817499750027
324	4482	197	6.6212585086741
324	4483	198	7.4461158869208
324	4484	199	7.4081973888047
324	4485	200	2.147751997247
325	4481	196	2414.8769683659
325	4482	197	2412.0564856079
325	4483	198	2407.4676977313
325	4484	199	2402.663560528
325	4485	200	2396.5274205491
326	4481	196	1578.4505912997
326	4482	197	1579.4862578483
326	4483	198	1581.2437467277
326	4484	199	1586.1096758712
326	4485	200	1592.3247403214
327	4482	197	3.8481264791193
327	4483	198	5.8155300119843
327	4484	199	7.6658310651567
327	4485	200	9.5357295588867
328	4483	198	1.967403532865
328	4484	199	1.8503010531724
328	4485	200	1.86989849373
329	4483	198	4.166110692362
329	4484	199	4.9397817067217
329	4485	200	5.947337921837
330	4484	199	2414.8293824452
330	4485	200	2411.7653542396
331	4484	199	1578.4680646015
331	4485	200	1579.5931597669
332	4485	200	4.1270271831314

