file 972408 1692809727                                          
version 2
run Default-0-20230823-13:55:13-7698
attr configname Default
attr datetime 20230823-13:55:13
attr experiment Default
attr inifile omnetpp.ini
attr iterationvars ""
attr iterationvarsf ""
attr measurement ""
attr network RSUExampleScenario
attr processid 7698
attr repetition 0
attr replication #0
attr resultdir results
attr runnumber 0
attr seedset 0
param *.playgroundSizeX 2500m
param *.playgroundSizeY 2500m
param *.playgroundSizeZ 50m
param *.annotations.draw true
param *.obstacles.obstacles "xmldoc(\"config.xml\", \"//AnalogueModel[@type='SimpleObstacleShadowing']/obstacles\")"
param *.manager.updateInterval 1s
param *.manager.host "\"localhost\""
param *.manager.port 9999
param *.manager.autoShutdown true
param *.manager.launchConfig "xmldoc(\"erlangen.launchd.xml\")"
param *.rsu[0].mobility.x 2000
param *.rsu[0].mobility.y 2000
param *.rsu[0].mobility.z 3
param *.rsu[*].applType "\"TraCIDemoRSU11p\""
param *.rsu[*].appl.headerLength "80 bit"
param *.rsu[*].appl.sendBeacons false
param *.rsu[*].appl.dataOnSch false
param *.rsu[*].appl.beaconInterval 1s
param *.rsu[*].appl.beaconUserPriority 7
param *.rsu[*].appl.dataUserPriority 5
param *.rsu[*].nic.phy80211p.antennaOffsetZ "0 m"
param *.connectionManager.sendDirect true
param *.connectionManager.maxInterfDist 2600m
param *.connectionManager.drawMaxIntfDist false
param *.**.nic.mac1609_4.useServiceChannel false
param *.**.nic.mac1609_4.txPower 20mW
param *.**.nic.mac1609_4.bitrate 6Mbps
param *.**.nic.phy80211p.minPowerLevel -110dBm
param *.**.nic.phy80211p.useNoiseFloor true
param *.**.nic.phy80211p.noiseFloor -98dBm
param *.**.nic.phy80211p.decider "xmldoc(\"config.xml\")"
param *.**.nic.phy80211p.analogueModels "xmldoc(\"config.xml\")"
param *.**.nic.phy80211p.usePropagationDelay true
param *.**.nic.phy80211p.antenna "xmldoc(\"antenna.xml\", \"/root/Antenna[@id='monopole']\")"
param *.node[*].nic.phy80211p.antennaOffsetY "0 m"
param *.node[*].nic.phy80211p.antennaOffsetZ "1.895 m"
param *.node[*].applType "\"TraCIDemo11p\""
param *.node[*].appl.headerLength "80 bit"
param *.node[*].appl.sendBeacons false
param *.node[*].appl.dataOnSch false
param *.node[*].appl.beaconInterval 1s
param *.node[*].veinsmobility.x 0
param *.node[*].veinsmobility.y 0
param *.node[*].veinsmobility.z 0
param *.node[*].veinsmobility.setHostSpeed false

vector 0 RSUExampleScenario.node[0].veinsmobility posx ETV
vector 1 RSUExampleScenario.node[0].veinsmobility posy ETV
vector 2 RSUExampleScenario.node[0].veinsmobility speed ETV
vector 3 RSUExampleScenario.node[0].veinsmobility acceleration ETV
vector 4 RSUExampleScenario.node[0].veinsmobility co2emission ETV
vector 5 RSUExampleScenario.node[1].veinsmobility posx ETV
vector 6 RSUExampleScenario.node[1].veinsmobility posy ETV
vector 7 RSUExampleScenario.node[1].veinsmobility speed ETV
vector 8 RSUExampleScenario.node[1].veinsmobility acceleration ETV
vector 9 RSUExampleScenario.node[1].veinsmobility co2emission ETV
vector 10 RSUExampleScenario.node[2].veinsmobility posx ETV
vector 11 RSUExampleScenario.node[2].veinsmobility posy ETV
vector 12 RSUExampleScenario.node[2].veinsmobility speed ETV
vector 13 RSUExampleScenario.node[2].veinsmobility acceleration ETV
vector 14 RSUExampleScenario.node[2].veinsmobility co2emission ETV
vector 15 RSUExampleScenario.node[3].veinsmobility posx ETV
vector 16 RSUExampleScenario.node[3].veinsmobility posy ETV
vector 17 RSUExampleScenario.node[3].veinsmobility speed ETV
vector 18 RSUExampleScenario.node[3].veinsmobility acceleration ETV
vector 19 RSUExampleScenario.node[3].veinsmobility co2emission ETV
vector 20 RSUExampleScenario.node[4].veinsmobility posx ETV
vector 21 RSUExampleScenario.node[4].veinsmobility posy ETV
vector 22 RSUExampleScenario.node[4].veinsmobility speed ETV
vector 23 RSUExampleScenario.node[4].veinsmobility acceleration ETV
vector 24 RSUExampleScenario.node[4].veinsmobility co2emission ETV
vector 25 RSUExampleScenario.node[5].veinsmobility posx ETV
vector 26 RSUExampleScenario.node[5].veinsmobility posy ETV
vector 27 RSUExampleScenario.node[5].veinsmobility speed ETV
vector 28 RSUExampleScenario.node[5].veinsmobility acceleration ETV
vector 29 RSUExampleScenario.node[5].veinsmobility co2emission ETV
vector 30 RSUExampleScenario.node[6].veinsmobility posx ETV
vector 31 RSUExampleScenario.node[6].veinsmobility posy ETV
vector 32 RSUExampleScenario.node[6].veinsmobility speed ETV
vector 33 RSUExampleScenario.node[6].veinsmobility acceleration ETV
vector 34 RSUExampleScenario.node[6].veinsmobility co2emission ETV
vector 35 RSUExampleScenario.node[7].veinsmobility posx ETV
vector 36 RSUExampleScenario.node[7].veinsmobility posy ETV
vector 37 RSUExampleScenario.node[7].veinsmobility speed ETV
vector 38 RSUExampleScenario.node[7].veinsmobility acceleration ETV
vector 39 RSUExampleScenario.node[7].veinsmobility co2emission ETV
vector 40 RSUExampleScenario.node[8].veinsmobility posx ETV
vector 41 RSUExampleScenario.node[8].veinsmobility posy ETV
vector 42 RSUExampleScenario.node[8].veinsmobility speed ETV
vector 43 RSUExampleScenario.node[8].veinsmobility acceleration ETV
vector 44 RSUExampleScenario.node[8].veinsmobility co2emission ETV
vector 45 RSUExampleScenario.node[9].veinsmobility posx ETV
vector 46 RSUExampleScenario.node[9].veinsmobility posy ETV
vector 47 RSUExampleScenario.node[9].veinsmobility speed ETV
vector 48 RSUExampleScenario.node[9].veinsmobility acceleration ETV
vector 49 RSUExampleScenario.node[9].veinsmobility co2emission ETV
vector 50 RSUExampleScenario.node[10].veinsmobility posx ETV
vector 51 RSUExampleScenario.node[10].veinsmobility posy ETV
vector 52 RSUExampleScenario.node[10].veinsmobility speed ETV
vector 53 RSUExampleScenario.node[10].veinsmobility acceleration ETV
vector 54 RSUExampleScenario.node[10].veinsmobility co2emission ETV
vector 55 RSUExampleScenario.node[11].veinsmobility posx ETV
vector 56 RSUExampleScenario.node[11].veinsmobility posy ETV
vector 57 RSUExampleScenario.node[11].veinsmobility speed ETV
vector 58 RSUExampleScenario.node[11].veinsmobility acceleration ETV
vector 59 RSUExampleScenario.node[11].veinsmobility co2emission ETV
vector 60 RSUExampleScenario.node[12].veinsmobility posx ETV
vector 61 RSUExampleScenario.node[12].veinsmobility posy ETV
vector 62 RSUExampleScenario.node[12].veinsmobility speed ETV
vector 63 RSUExampleScenario.node[12].veinsmobility acceleration ETV
vector 64 RSUExampleScenario.node[12].veinsmobility co2emission ETV
vector 65 RSUExampleScenario.node[13].veinsmobility posx ETV
vector 66 RSUExampleScenario.node[13].veinsmobility posy ETV
vector 67 RSUExampleScenario.node[13].veinsmobility speed ETV
vector 68 RSUExampleScenario.node[13].veinsmobility acceleration ETV
vector 69 RSUExampleScenario.node[13].veinsmobility co2emission ETV
vector 70 RSUExampleScenario.node[14].veinsmobility posx ETV
vector 71 RSUExampleScenario.node[14].veinsmobility posy ETV
vector 72 RSUExampleScenario.node[14].veinsmobility speed ETV
vector 73 RSUExampleScenario.node[14].veinsmobility acceleration ETV
vector 74 RSUExampleScenario.node[14].veinsmobility co2emission ETV
vector 75 RSUExampleScenario.node[15].veinsmobility posx ETV
vector 76 RSUExampleScenario.node[15].veinsmobility posy ETV
vector 77 RSUExampleScenario.node[15].veinsmobility speed ETV
vector 78 RSUExampleScenario.node[15].veinsmobility acceleration ETV
vector 79 RSUExampleScenario.node[15].veinsmobility co2emission ETV
vector 80 RSUExampleScenario.node[16].veinsmobility posx ETV
vector 81 RSUExampleScenario.node[16].veinsmobility posy ETV
vector 82 RSUExampleScenario.node[16].veinsmobility speed ETV
vector 83 RSUExampleScenario.node[16].veinsmobility acceleration ETV
vector 84 RSUExampleScenario.node[16].veinsmobility co2emission ETV
vector 85 RSUExampleScenario.node[17].veinsmobility posx ETV
vector 86 RSUExampleScenario.node[17].veinsmobility posy ETV
vector 87 RSUExampleScenario.node[17].veinsmobility speed ETV
vector 88 RSUExampleScenario.node[17].veinsmobility acceleration ETV
vector 89 RSUExampleScenario.node[17].veinsmobility co2emission ETV
vector 90 RSUExampleScenario.node[18].veinsmobility posx ETV
vector 91 RSUExampleScenario.node[18].veinsmobility posy ETV
vector 92 RSUExampleScenario.node[18].veinsmobility speed ETV
vector 93 RSUExampleScenario.node[18].veinsmobility acceleration ETV
vector 94 RSUExampleScenario.node[18].veinsmobility co2emission ETV
vector 95 RSUExampleScenario.node[19].veinsmobility posx ETV
vector 96 RSUExampleScenario.node[19].veinsmobility posy ETV
vector 97 RSUExampleScenario.node[19].veinsmobility speed ETV
vector 98 RSUExampleScenario.node[19].veinsmobility acceleration ETV
vector 99 RSUExampleScenario.node[19].veinsmobility co2emission ETV
vector 100 RSUExampleScenario.node[20].veinsmobility posx ETV
vector 101 RSUExampleScenario.node[20].veinsmobility posy ETV
vector 102 RSUExampleScenario.node[20].veinsmobility speed ETV
vector 103 RSUExampleScenario.node[20].veinsmobility acceleration ETV
vector 104 RSUExampleScenario.node[20].veinsmobility co2emission ETV
vector 105 RSUExampleScenario.node[21].veinsmobility posx ETV
vector 106 RSUExampleScenario.node[21].veinsmobility posy ETV
vector 107 RSUExampleScenario.node[21].veinsmobility speed ETV
vector 108 RSUExampleScenario.node[21].veinsmobility acceleration ETV
vector 109 RSUExampleScenario.node[21].veinsmobility co2emission ETV
vector 110 RSUExampleScenario.node[22].veinsmobility posx ETV
vector 111 RSUExampleScenario.node[22].veinsmobility posy ETV
vector 112 RSUExampleScenario.node[22].veinsmobility speed ETV
vector 113 RSUExampleScenario.node[22].veinsmobility acceleration ETV
vector 114 RSUExampleScenario.node[22].veinsmobility co2emission ETV
vector 115 RSUExampleScenario.node[23].veinsmobility posx ETV
vector 116 RSUExampleScenario.node[23].veinsmobility posy ETV
vector 117 RSUExampleScenario.node[23].veinsmobility speed ETV
vector 118 RSUExampleScenario.node[23].veinsmobility acceleration ETV
vector 119 RSUExampleScenario.node[23].veinsmobility co2emission ETV
vector 120 RSUExampleScenario.node[24].veinsmobility posx ETV
vector 121 RSUExampleScenario.node[24].veinsmobility posy ETV
vector 122 RSUExampleScenario.node[24].veinsmobility speed ETV
vector 123 RSUExampleScenario.node[24].veinsmobility acceleration ETV
vector 124 RSUExampleScenario.node[24].veinsmobility co2emission ETV
vector 125 RSUExampleScenario.node[25].veinsmobility posx ETV
vector 126 RSUExampleScenario.node[25].veinsmobility posy ETV
vector 127 RSUExampleScenario.node[25].veinsmobility speed ETV
vector 128 RSUExampleScenario.node[25].veinsmobility acceleration ETV
vector 129 RSUExampleScenario.node[25].veinsmobility co2emission ETV
vector 130 RSUExampleScenario.node[26].veinsmobility posx ETV
vector 131 RSUExampleScenario.node[26].veinsmobility posy ETV
vector 132 RSUExampleScenario.node[26].veinsmobility speed ETV
vector 133 RSUExampleScenario.node[26].veinsmobility acceleration ETV
vector 134 RSUExampleScenario.node[26].veinsmobility co2emission ETV
vector 135 RSUExampleScenario.node[27].veinsmobility posx ETV
vector 136 RSUExampleScenario.node[27].veinsmobility posy ETV
vector 137 RSUExampleScenario.node[27].veinsmobility speed ETV
vector 138 RSUExampleScenario.node[27].veinsmobility acceleration ETV
vector 139 RSUExampleScenario.node[27].veinsmobility co2emission ETV
vector 140 RSUExampleScenario.node[28].veinsmobility posx ETV
vector 141 RSUExampleScenario.node[28].veinsmobility posy ETV
vector 142 RSUExampleScenario.node[28].veinsmobility speed ETV
vector 143 RSUExampleScenario.node[28].veinsmobility acceleration ETV
vector 144 RSUExampleScenario.node[28].veinsmobility co2emission ETV
vector 145 RSUExampleScenario.node[29].veinsmobility posx ETV
vector 146 RSUExampleScenario.node[29].veinsmobility posy ETV
vector 147 RSUExampleScenario.node[29].veinsmobility speed ETV
vector 148 RSUExampleScenario.node[29].veinsmobility acceleration ETV
vector 149 RSUExampleScenario.node[29].veinsmobility co2emission ETV
vector 150 RSUExampleScenario.node[30].veinsmobility posx ETV
vector 151 RSUExampleScenario.node[30].veinsmobility posy ETV
vector 152 RSUExampleScenario.node[30].veinsmobility speed ETV
vector 153 RSUExampleScenario.node[30].veinsmobility acceleration ETV
vector 154 RSUExampleScenario.node[30].veinsmobility co2emission ETV
vector 155 RSUExampleScenario.node[31].veinsmobility posx ETV
vector 156 RSUExampleScenario.node[31].veinsmobility posy ETV
vector 157 RSUExampleScenario.node[31].veinsmobility speed ETV
vector 158 RSUExampleScenario.node[31].veinsmobility acceleration ETV
vector 159 RSUExampleScenario.node[31].veinsmobility co2emission ETV
vector 160 RSUExampleScenario.node[32].veinsmobility posx ETV
vector 161 RSUExampleScenario.node[32].veinsmobility posy ETV
vector 162 RSUExampleScenario.node[32].veinsmobility speed ETV
vector 163 RSUExampleScenario.node[32].veinsmobility acceleration ETV
vector 164 RSUExampleScenario.node[32].veinsmobility co2emission ETV
vector 165 RSUExampleScenario.node[33].veinsmobility posx ETV
vector 166 RSUExampleScenario.node[33].veinsmobility posy ETV
vector 167 RSUExampleScenario.node[33].veinsmobility speed ETV
vector 168 RSUExampleScenario.node[33].veinsmobility acceleration ETV
vector 169 RSUExampleScenario.node[33].veinsmobility co2emission ETV
vector 170 RSUExampleScenario.node[34].veinsmobility posx ETV
vector 171 RSUExampleScenario.node[34].veinsmobility posy ETV
vector 172 RSUExampleScenario.node[34].veinsmobility speed ETV
vector 173 RSUExampleScenario.node[34].veinsmobility acceleration ETV
vector 174 RSUExampleScenario.node[34].veinsmobility co2emission ETV
vector 175 RSUExampleScenario.node[35].veinsmobility posx ETV
vector 176 RSUExampleScenario.node[35].veinsmobility posy ETV
vector 177 RSUExampleScenario.node[35].veinsmobility speed ETV
vector 178 RSUExampleScenario.node[35].veinsmobility acceleration ETV
vector 179 RSUExampleScenario.node[35].veinsmobility co2emission ETV
vector 180 RSUExampleScenario.node[36].veinsmobility posx ETV
vector 181 RSUExampleScenario.node[36].veinsmobility posy ETV
vector 182 RSUExampleScenario.node[36].veinsmobility speed ETV
vector 183 RSUExampleScenario.node[36].veinsmobility acceleration ETV
vector 184 RSUExampleScenario.node[36].veinsmobility co2emission ETV
vector 185 RSUExampleScenario.node[37].veinsmobility posx ETV
vector 186 RSUExampleScenario.node[37].veinsmobility posy ETV
vector 187 RSUExampleScenario.node[37].veinsmobility speed ETV
vector 188 RSUExampleScenario.node[37].veinsmobility acceleration ETV
vector 189 RSUExampleScenario.node[37].veinsmobility co2emission ETV
vector 190 RSUExampleScenario.node[38].veinsmobility posx ETV
vector 191 RSUExampleScenario.node[38].veinsmobility posy ETV
vector 192 RSUExampleScenario.node[38].veinsmobility speed ETV
vector 193 RSUExampleScenario.node[38].veinsmobility acceleration ETV
vector 194 RSUExampleScenario.node[38].veinsmobility co2emission ETV
vector 195 RSUExampleScenario.node[39].veinsmobility posx ETV
vector 196 RSUExampleScenario.node[39].veinsmobility posy ETV
vector 197 RSUExampleScenario.node[39].veinsmobility speed ETV
vector 198 RSUExampleScenario.node[39].veinsmobility acceleration ETV
vector 199 RSUExampleScenario.node[39].veinsmobility co2emission ETV
vector 200 RSUExampleScenario.node[40].veinsmobility posx ETV
vector 201 RSUExampleScenario.node[40].veinsmobility posy ETV
vector 202 RSUExampleScenario.node[40].veinsmobility speed ETV
vector 203 RSUExampleScenario.node[40].veinsmobility acceleration ETV
vector 204 RSUExampleScenario.node[40].veinsmobility co2emission ETV
vector 205 RSUExampleScenario.node[41].veinsmobility posx ETV
vector 206 RSUExampleScenario.node[41].veinsmobility posy ETV
vector 207 RSUExampleScenario.node[41].veinsmobility speed ETV
vector 208 RSUExampleScenario.node[41].veinsmobility acceleration ETV
vector 209 RSUExampleScenario.node[41].veinsmobility co2emission ETV
vector 210 RSUExampleScenario.node[42].veinsmobility posx ETV
vector 211 RSUExampleScenario.node[42].veinsmobility posy ETV
vector 212 RSUExampleScenario.node[42].veinsmobility speed ETV
vector 213 RSUExampleScenario.node[42].veinsmobility acceleration ETV
vector 214 RSUExampleScenario.node[42].veinsmobility co2emission ETV
vector 215 RSUExampleScenario.node[43].veinsmobility posx ETV
vector 216 RSUExampleScenario.node[43].veinsmobility posy ETV
vector 217 RSUExampleScenario.node[43].veinsmobility speed ETV
vector 218 RSUExampleScenario.node[43].veinsmobility acceleration ETV
vector 219 RSUExampleScenario.node[43].veinsmobility co2emission ETV
vector 220 RSUExampleScenario.node[44].veinsmobility posx ETV
vector 221 RSUExampleScenario.node[44].veinsmobility posy ETV
vector 222 RSUExampleScenario.node[44].veinsmobility speed ETV
vector 223 RSUExampleScenario.node[44].veinsmobility acceleration ETV
vector 224 RSUExampleScenario.node[44].veinsmobility co2emission ETV
vector 225 RSUExampleScenario.node[45].veinsmobility posx ETV
vector 226 RSUExampleScenario.node[45].veinsmobility posy ETV
vector 227 RSUExampleScenario.node[45].veinsmobility speed ETV
vector 228 RSUExampleScenario.node[45].veinsmobility acceleration ETV
vector 229 RSUExampleScenario.node[45].veinsmobility co2emission ETV
vector 230 RSUExampleScenario.node[46].veinsmobility posx ETV
vector 231 RSUExampleScenario.node[46].veinsmobility posy ETV
vector 232 RSUExampleScenario.node[46].veinsmobility speed ETV
vector 233 RSUExampleScenario.node[46].veinsmobility acceleration ETV
vector 234 RSUExampleScenario.node[46].veinsmobility co2emission ETV
vector 235 RSUExampleScenario.node[47].veinsmobility posx ETV
vector 236 RSUExampleScenario.node[47].veinsmobility posy ETV
vector 237 RSUExampleScenario.node[47].veinsmobility speed ETV
vector 238 RSUExampleScenario.node[47].veinsmobility acceleration ETV
vector 239 RSUExampleScenario.node[47].veinsmobility co2emission ETV
vector 240 RSUExampleScenario.node[48].veinsmobility posx ETV
vector 241 RSUExampleScenario.node[48].veinsmobility posy ETV
vector 242 RSUExampleScenario.node[48].veinsmobility speed ETV
vector 243 RSUExampleScenario.node[48].veinsmobility acceleration ETV
vector 244 RSUExampleScenario.node[48].veinsmobility co2emission ETV
vector 245 RSUExampleScenario.node[49].veinsmobility posx ETV
vector 246 RSUExampleScenario.node[49].veinsmobility posy ETV
vector 247 RSUExampleScenario.node[49].veinsmobility speed ETV
vector 248 RSUExampleScenario.node[49].veinsmobility acceleration ETV
vector 249 RSUExampleScenario.node[49].veinsmobility co2emission ETV
vector 250 RSUExampleScenario.node[50].veinsmobility posx ETV
vector 251 RSUExampleScenario.node[50].veinsmobility posy ETV
vector 252 RSUExampleScenario.node[50].veinsmobility speed ETV
vector 253 RSUExampleScenario.node[50].veinsmobility acceleration ETV
vector 254 RSUExampleScenario.node[50].veinsmobility co2emission ETV
vector 255 RSUExampleScenario.node[51].veinsmobility posx ETV
vector 256 RSUExampleScenario.node[51].veinsmobility posy ETV
vector 257 RSUExampleScenario.node[51].veinsmobility speed ETV
vector 258 RSUExampleScenario.node[51].veinsmobility acceleration ETV
vector 259 RSUExampleScenario.node[51].veinsmobility co2emission ETV
vector 260 RSUExampleScenario.node[52].veinsmobility posx ETV
vector 261 RSUExampleScenario.node[52].veinsmobility posy ETV
vector 262 RSUExampleScenario.node[52].veinsmobility speed ETV
vector 263 RSUExampleScenario.node[52].veinsmobility acceleration ETV
vector 264 RSUExampleScenario.node[52].veinsmobility co2emission ETV
vector 265 RSUExampleScenario.node[53].veinsmobility posx ETV
vector 266 RSUExampleScenario.node[53].veinsmobility posy ETV
vector 267 RSUExampleScenario.node[53].veinsmobility speed ETV
vector 268 RSUExampleScenario.node[53].veinsmobility acceleration ETV
vector 269 RSUExampleScenario.node[53].veinsmobility co2emission ETV
vector 270 RSUExampleScenario.node[54].veinsmobility posx ETV
vector 271 RSUExampleScenario.node[54].veinsmobility posy ETV
vector 272 RSUExampleScenario.node[54].veinsmobility speed ETV
vector 273 RSUExampleScenario.node[54].veinsmobility acceleration ETV
vector 274 RSUExampleScenario.node[54].veinsmobility co2emission ETV
vector 275 RSUExampleScenario.node[55].veinsmobility posx ETV
vector 276 RSUExampleScenario.node[55].veinsmobility posy ETV
vector 277 RSUExampleScenario.node[55].veinsmobility speed ETV
vector 278 RSUExampleScenario.node[55].veinsmobility acceleration ETV
vector 279 RSUExampleScenario.node[55].veinsmobility co2emission ETV
vector 280 RSUExampleScenario.node[56].veinsmobility posx ETV
vector 281 RSUExampleScenario.node[56].veinsmobility posy ETV
vector 282 RSUExampleScenario.node[56].veinsmobility speed ETV
vector 283 RSUExampleScenario.node[56].veinsmobility acceleration ETV
vector 284 RSUExampleScenario.node[56].veinsmobility co2emission ETV
vector 285 RSUExampleScenario.node[57].veinsmobility posx ETV
vector 286 RSUExampleScenario.node[57].veinsmobility posy ETV
vector 287 RSUExampleScenario.node[57].veinsmobility speed ETV
vector 288 RSUExampleScenario.node[57].veinsmobility acceleration ETV
vector 289 RSUExampleScenario.node[57].veinsmobility co2emission ETV
vector 290 RSUExampleScenario.node[58].veinsmobility posx ETV
vector 291 RSUExampleScenario.node[58].veinsmobility posy ETV
vector 292 RSUExampleScenario.node[58].veinsmobility speed ETV
vector 293 RSUExampleScenario.node[58].veinsmobility acceleration ETV
vector 294 RSUExampleScenario.node[58].veinsmobility co2emission ETV
vector 295 RSUExampleScenario.node[59].veinsmobility posx ETV
vector 296 RSUExampleScenario.node[59].veinsmobility posy ETV
vector 297 RSUExampleScenario.node[59].veinsmobility speed ETV
vector 298 RSUExampleScenario.node[59].veinsmobility acceleration ETV
vector 299 RSUExampleScenario.node[59].veinsmobility co2emission ETV
vector 300 RSUExampleScenario.node[60].veinsmobility posx ETV
vector 301 RSUExampleScenario.node[60].veinsmobility posy ETV
vector 302 RSUExampleScenario.node[60].veinsmobility speed ETV
vector 303 RSUExampleScenario.node[60].veinsmobility acceleration ETV
vector 304 RSUExampleScenario.node[60].veinsmobility co2emission ETV
vector 305 RSUExampleScenario.node[61].veinsmobility posx ETV
vector 306 RSUExampleScenario.node[61].veinsmobility posy ETV
vector 307 RSUExampleScenario.node[61].veinsmobility speed ETV
vector 308 RSUExampleScenario.node[61].veinsmobility acceleration ETV
vector 309 RSUExampleScenario.node[61].veinsmobility co2emission ETV
vector 310 RSUExampleScenario.node[62].veinsmobility posx ETV
vector 311 RSUExampleScenario.node[62].veinsmobility posy ETV
vector 312 RSUExampleScenario.node[62].veinsmobility speed ETV
vector 313 RSUExampleScenario.node[62].veinsmobility acceleration ETV
vector 314 RSUExampleScenario.node[62].veinsmobility co2emission ETV
vector 315 RSUExampleScenario.node[63].veinsmobility posx ETV
vector 316 RSUExampleScenario.node[63].veinsmobility posy ETV
vector 317 RSUExampleScenario.node[63].veinsmobility speed ETV
vector 318 RSUExampleScenario.node[63].veinsmobility acceleration ETV
vector 319 RSUExampleScenario.node[63].veinsmobility co2emission ETV
vector 320 RSUExampleScenario.node[64].veinsmobility posx ETV
vector 321 RSUExampleScenario.node[64].veinsmobility posy ETV
vector 322 RSUExampleScenario.node[64].veinsmobility speed ETV
vector 323 RSUExampleScenario.node[64].veinsmobility acceleration ETV
vector 324 RSUExampleScenario.node[64].veinsmobility co2emission ETV
vector 325 RSUExampleScenario.node[65].veinsmobility posx ETV
vector 326 RSUExampleScenario.node[65].veinsmobility posy ETV
vector 327 RSUExampleScenario.node[65].veinsmobility speed ETV
vector 328 RSUExampleScenario.node[65].veinsmobility acceleration ETV
vector 329 RSUExampleScenario.node[65].veinsmobility co2emission ETV
vector 330 RSUExampleScenario.node[66].veinsmobility posx ETV
vector 331 RSUExampleScenario.node[66].veinsmobility posy ETV
vector 332 RSUExampleScenario.node[66].veinsmobility speed ETV
0	23878 5202 2 4485 1 200 200 672.26203093457 2450.6248001783 360047.13486743 709956471.33989
1	29080 5207 2 4485 1 200 200 1292.5515033305 2120.9360540062 336291.76739452 581194672.95873
2	34287 5187 4 4485 2 200 199 4.1061966058897 13.999815066161 2700.8688857273 37063.083619514
3	39474 5614 18 4485 3 200 198 -4.5 2.2078255666373 9.7678416871995 97.848889548974
4	45088 5132 18 4485 3 200 198 0.973 8.9023657158011 456.39770873701 1337.5074386161
5	50220 5142 20 4485 4 200 197 716.00329998008 2450.4780716181 358368.15723844 709689398.7365
6	55362 5141 20 4485 4 200 197 1303.7192303631 2120.5707901428 332532.22605905 576568055.45928
7	60503 5123 39 4485 5 200 196 4.0332649588119 13.99953793895 2656.8122959343 36422.167536245
8	65626 5566 41 4485 6 200 195 -4.4892687861132 2.0988350649318 9.8737470179308 87.046526447744
9	71192 5052 41 4485 6 200 195 0.973 8.7525284671264 445.97925486804 1297.4838307997
10	76244 5261 60 4485 7 200 194 754.10455347982 2450.659299592 355871.18504903 707125591.73776
11	81505 5261 60 4485 7 200 194 1310.952197616 2120.9589145361 328542.90580089 571240429.99575
12	86766 5251 62 4485 8 200 193 3.930963162637 13.999306945624 2617.194918932 35876.567553246
13	92017 5671 86 4485 9 200 192 -4.4962264973393 2.0878022219194 10.062871864104 86.587143210814
14	97688 5159 86 4485 9 200 192 0.973 8.2469806235914 440.48704965141 1280.3349939763
15	102847 5192 88 4485 10 200 191 795.87063473091 2450.5176811377 353501.01706697 705113220.86821
16	108039 5203 88 4485 10 200 191 1314.6725842031 2120.90069908 324650.18574949 566239488.99889
17	113242 5174 117 4485 11 200 190 4.0076977833542 13.999869057706 2575.9645312653 35316.294900104
18	118416 5591 119 4485 12 200 189 -4.5 2.1600366940722 9.9457803347269 93.901860445113
19	124007 5077 119 4485 12 200 189 0.973 8.3694083781091 437.02686621855 1299.583601457
20	129084 5123 148 4485 13 200 188 859.87637261907 2450.2645866362 353551.26222179 711133586.23819
21	134207 5119 148 4485 13 200 188 1319.7500115708 2120.7883864809 321180.07356289 562414430.11081
22	139326 5100 150 4485 14 200 187 4.1202440707026 13.999806407762 2511.5897586953 34143.908640417
23	144426 5521 181 4485 15 200 186 -4.4202670209802 2.2053875824949 9.7830073217313 82.767586494474
24	149947 5029 181 4485 15 200 186 0.973 8.3105242583869 424.40643248237 1211.3477347695
25	154976 5038 183 4485 16 200 185 893.31459193269 2450.2291497608 349989.56806062 705704651.51531
26	160014 5035 183 4485 16 200 185 1322.4261302324 2120.7722106203 317228.28758649 557363016.16432
27	165049 5010 216 4485 17 200 184 4.11254450365 13.998108282317 2477.792549806 33805.906892067
28	170059 5432 218 4485 18 200 183 -4.1476450008758 2.2240570376068 9.8758804251413 89.948192690364
29	175491 4905 218 4485 18 200 183 0.973 8.8530434321966 424.54113253396 1283.0732761958
30	180396 4973 251 4485 19 200 182 932.72304202244 2450.4280289282 347088.90239047 702700810.65271
31	185369 4966 251 4485 19 200 182 1325.7088249717 2120.8566767089 313023.39291018 551289737.05068
32	190335 4934 253 4485 20 200 181 4.067372106413 13.999156328384 2436.7206695731 33221.538478544
33	195269 5333 288 4485 21 200 180 -4.5 2.4234314252366 9.8239039821722 96.170587700569
34	200602 4844 288 4485 21 200 180 0.973 7.9969762628647 415.74249292406 1232.0761911646
35	205446 4881 290 4485 22 200 179 1088.7082149057 2450.4365012295 352603.19819399 727900107.19878
36	210327 4892 290 4485 22 200 179 1339.0043347366 2120.6614999305 311613.80108965 554088395.76097
37	215219 4867 327 4485 23 200 178 4.0608742667126 13.999243474267 2280.509926673 29696.590883851
38	220086 5259 329 4485 24 200 177 -4.4823587748475 2.2555459074327 8.5963906754339 78.647573966076
39	225345 4783 329 4485 24 200 177 0.973 7.9715287769973 389.80205769211 1073.0921903787
40	230128 4806 366 4485 25 200 176 1078.1246224977 2450.3239084678 347327.29681037 717794953.09459
41	234934 4815 366 4485 25 200 176 1341.4936423833 2120.8279265687 307484.31590812 548521110.6291
42	239749 4773 368 4485 26 200 175 4.0643546214392 13.997144927946 2290.5558444338 30492.442786196
43	244522 5152 407 4485 27 200 174 -3.3070113040032 2.2392650089366 9.9263282006541 73.336161849212
44	249674 4633 407 4485 27 200 174 0.973 8.3114076733424 393.58656872273 1183.4251866769
45	254307 4732 409 4485 28 200 173 1104.7313831237 2450.5540833102 342537.99098189 708820249.70296
46	259039 4731 409 4485 28 200 173 1343.4129234422 2120.7919995487 303160.746917 542352178.798
47	263770 4707 450 4485 29 200 172 3.8828872453123 13.999686614256 2266.1689596964 30375.674435906
48	268477 5066 452 4485 30 200 171 -2.5256712424416 2.1636936872965 10.060418808383 71.923581004294
49	273543 4554 452 4485 30 200 171 0.973 8.3259780451779 390.86764354377 1201.058178924
50	278097 4653 493 4485 31 200 170 1130.0321623905 2450.3828549772 337564.98646278 699233369.69281
51	282750 4654 493 4485 31 200 170 1342.2995208483 2120.7039867258 298729.84969039 535768162.8454
52	287404 4624 495 4485 32 200 169 4.1947202222332 13.999328219597 2240.4521413016 30195.330138362
53	292028 4971 538 4485 33 200 168 -3.1158763178945 2.2461710704397 9.7919412736405 74.442907026511
54	296999 4505 538 4485 33 200 168 0.973 8.8976355453378 389.76404495422 1205.2365656531
55	301504 4572 540 4485 34 200 167 1156.2839491203 2450.2307157078 332738.83727744 690323089.5783
56	306076 4573 540 4485 34 200 167 1345.0680095227 2120.7777846977 293915.06400375 527717365.52603
57	310649 4545 588 4485 35 200 166 3.8489417596173 13.999905188144 2213.2062178905 29959.551493859
58	315194 4908 590 4485 36 200 165 -3.7792833418176 2.3961217227788 10.112240411233 74.681038676932
59	320102 4432 590 4485 36 200 165 0.973 8.73746890554 379.95547309708 1149.4940251415
60	324534 4497 635 4485 37 200 164 1188.8292236056 2450.6306422632 328682.56691062 684495806.92824
61	329031 4494 635 4485 37 200 164 1348.5002034819 2120.9520459101 289222.26101959 519975805.2644
62	333525 4471 637 4485 38 200 163 3.9219617499206 13.999378900521 2181.4330496129 29601.452312035
63	337996 4797 684 4485 39 200 162 -4.5 2.171357678452 10.002443866597 73.619143183128
64	342793 4372 684 4485 39 200 162 0.973 8.7089421533914 373.90027125102 1131.0533877384
65	347165 4416 686 4485 40 200 161 1222.9395196646 2450.1499671022 324457.0649188 677952112.95577
66	351581 4413 686 4485 40 200 161 1352.097443141 2120.7260294929 284996.26170016 513967387.46305
67	355994 4391 735 4485 41 200 160 4.0161385181755 13.999926172604 2146.4845040357 29202.647801815
68	360385 4743 737 4485 42 200 159 -3.7634138144476 2.2943333165627 9.9833349202155 75.269427736288
69	365128 4284 737 4485 42 200 159 0.973 8.5606523284014 372.35224581682 1138.9789843537
70	369412 4341 786 4485 43 200 158 1257.2558799487 2450.6330954138 320164.38155067 671252307.35282
71	373753 4340 786 4485 43 200 158 1355.7164141387 2120.9558397355 280754.96412508 507910881.70419
72	378093 4314 788 4485 44 200 157 3.9992962979057 13.999656618503 2112.9074916065 28819.897821822
73	382407 4653 839 4485 45 200 156 -3.8456400924426 2.1980071439291 9.9683077902699 80.563169199393
74	387060 4236 839 4485 45 200 156 0.973 8.7718288962126 367.06183288134 1150.1840130574
75	391296 4267 841 4485 46 200 155 1298.1062285446 2450.6169209509 316330.12681351 666338750.95406
76	395563 4263 841 4485 46 200 155 1362.1142928526 2120.934805207 276662.90000689 502313094.7461
77	399826 4239 897 4485 47 200 154 4.1510441398274 13.997592851426 2072.1692900957 28270.014434016
78	404065 4572 899 4485 48 200 153 -4.4635536425416 2.0671690396545 9.7671942401116 87.315102094706
79	408637 4157 899 4485 48 200 153 0.973 8.4312780203507 360.88909081053 1126.5319354067
80	412794 4188 952 4485 49 200 152 1339.3752954229 2450.5254289502 312427.81140496 661312914.70321
81	416982 4188 952 4485 49 200 152 1369.261981653 2120.6608228572 272521.83502995 496554303.64928
82	421170 4163 954 4485 50 200 151 3.8447853377257 13.99575116436 2029.8908346324 27687.295800395
83	425333 4467 1009 4485 51 200 150 -4.5 2.078282451923 10.070749217004 83.863909928361
84	429800 4068 1009 4485 51 200 150 0.973 8.7472268623497 353.59470126342 1088.4558614057
85	433868 4104 1011 4485 52 200 149 1489.5188307102 2450.3597394241 317066.56653246 689160858.05063
86	437972 4101 1011 4485 52 200 149 1436.9197019152 2120.5688971151 271713.40200386 501573755.3266
87	442073 4079 1071 4485 53 200 148 3.8698786158062 13.999116995411 1862.7907534992 24002.530634336
88	446152 4383 1073 4485 54 200 147 -4.5 2.1310822762968 10.069878667901 65.905769411678
89	450535 4021 1073 4485 54 200 147 0.973 8.5377272186901 328.09887715289 937.51711294415
90	454556 4028 1136 4485 55 200 146 1512.5942377535 2450.4524190207 311599.76291806 678543942.06776
91	458584 4028 1136 4485 55 200 146 1454.4531583302 2120.7316811346 267483.44780161 495807160.54011
92	462612 4002 1138 4485 56 200 145 4.0700236807532 13.997020261355 1832.6624037108 23692.488813036
93	466614 4299 1203 4485 57 200 144 -3.293089319321 2.3297191780875 9.8857902592163 64.440740304177
94	470913 3874 1203 4485 57 200 144 0.973 8.696925829343 325.35117751631 1001.7171498447
95	474787 3942 1205 4485 58 200 143 1532.2165308929 2450.4624753713 305982.68219166 667436740.86585
96	478729 3953 1205 4485 58 200 143 1471.4265474295 2120.8961891662 263013.26385986 489234134.01924
97	482682 3921 1275 4485 59 200 142 3.8447639940612 13.996652629513 1807.3993440631 23520.544814147
98	486603 4198 1277 4485 60 200 141 -2.5445133379498 2.222100084126 10.125097352667 62.121758837676
99	490801 3726 1277 4485 60 200 141 0.973 8.3204552480567 321.20153782755 1020.3775233342
100	494527 4008 1350 4485 61 200 140 1550.6389917299 2450.3554975685 300239.25883828 655853351.27862
101	498535 4002 1350 4485 61 200 140 1487.3620751351 2120.5997553328 258441.16458222 482315489.68131
102	502537 3980 1352 4485 62 200 139 4.018615917157 13.998704754978 1783.5585494248 23393.997974122
103	506517 4254 1427 4485 63 200 138 -2.198287774594 2.3276957343216 9.9235344159942 71.658353929724
104	510771 3802 1427 4485 63 200 138 0.973 8.1667304192483 323.37201649277 1067.3107007499
105	514573 3921 1429 4485 64 200 137 1569.4216766355 2450.1610031507 294370.25912772 643670956.22319
106	518494 3920 1429 4485 64 200 137 1504.9065874442 2120.7689092075 253534.96105677 474230162.68765
107	522414 3897 1512 4485 65 200 136 4.2842987557744 13.999963147973 1757.1868361859 23156.555622406
108	526311 4141 1514 4485 66 200 135 -2.965684290064 2.279591250075 9.625185232499 66.309839341758
109	530452 3738 1514 4485 66 200 135 0.973 8.0062312204286 313.99226739921 982.06684619158
110	534190 3836 1600 4485 67 200 134 1586.5860528226 2450.1550019225 288583.51229318 631983266.58149
111	538026 3843 1600 4485 67 200 134 1522.2332318937 2120.9453101354 248812.24146338 466785811.01633
112	541869 3810 1602 4485 68 200 133 4.1832233416825 13.996225595996 1733.5768011132 23078.676171241
113	545679 4061 1690 4485 69 200 132 -2.4922948446457 2.2485749843647 9.7589964451105 72.691676804732
114	549740 3640 1690 4485 69 200 132 0.973 9.3845509327609 313.35329920108 1058.8387707524
115	553380 3753 1692 4485 70 200 131 1657.1178823279 2450.5820902542 287431.95311623 639260543.49483
116	557133 3754 1692 4485 70 200 131 1578.4517848091 2120.7082483275 244129.75993733 459127590.88942
117	560887 3726 1785 4485 71 200 130 4.0859593419879 13.998363435396 1634.7021760446 21030.272548419
118	564613 3991 1787 4485 72 200 129 -4.4969576200014 2.0294341745344 9.8035055914815 60.562728246673
119	568604 3653 1787 4485 72 200 129 0.973 7.5416277572968 292.48541757925 843.36048243868
120	572257 3670 1877 4485 73 200 128 1677.0001469174 2450.1930519535 281593.80979321 627461960.67699
121	575927 3675 1877 4485 73 200 128 1578.4505975069 2120.8731574817 239520.2840434 452180793.81671
122	579602 3640 1879 4485 74 200 127 4.0735588402093 13.997231491443 1607.3164454855 20814.649719551
123	583242 3869 1971 4485 75 200 126 -3.3641743177556 2.2564944986859 9.9119553170818 63.036220413912
124	587111 3510 1971 4485 75 200 126 0.973 8.3392083846763 290.27269758698 934.90090583304
125	590621 3587 1973 4485 76 200 125 1695.0311389155 2450.61204914 275645.33106762 615268285.22626
126	594208 3581 1973 4485 76 200 125 1578.4519604994 2120.5746393418 234761.22296893 444714749.25273
127	597789 3562 2070 4485 77 200 124 4.0635240824116 13.999252574216 1582.2229171173 20657.573685089
128	601351 3790 2072 4485 78 200 123 -2.4388622262347 2.1959245370305 9.8140863170391 63.480861888436
129	605141 3386 2072 4485 78 200 123 0.973 8.7205365289006 288.70733288207 985.2215781799
130	608527 3506 2169 4485 79 200 122 1712.4303102579 2450.245049579 269583.4587416 602605090.2167
131	612033 3502 2169 4485 79 200 122 1578.4618988531 2120.7444728371 229796.29661156 436535559.13308
132	615535 3476 2171 4485 80 200 121 4.0267229073465 13.999621272914 1556.5992423642 20469.831244765
133	619011 3684 2273 4485 81 200 120 -1.800034765683 2.1514025536249 9.8945028056862 57.655286429907
134	622695 3331 2273 4485 81 200 120 0.973 8.2365585891526 282.72206782441 937.47330264818
135	626026 3419 2275 4485 82 200 119 1730.8193484361 2450.1729110724 263512.80267006 589903378.66364
136	629445 3419 2275 4485 82 200 119 1578.4479903299 2120.9215816753 224700.39545463 427872417.08805
137	632864 3392 2388 4485 83 200 118 3.8169569386458 13.998507969014 1529.6629545455 20311.195122389
138	636256 3610 2390 4485 84 200 117 -2.3598040740222 2.1917019801144 10.162280462453 64.131580000249
139	639866 3226 2390 4485 84 200 117 0.973 7.8489798890004 282.36671053788 948.1698055172
140	643092 3337 2506 4485 85 200 116 1750.404874369 2450.3908839365 257672.19207125 578265689.62407
141	646429 3337 2506 4485 85 200 116 1578.4518036256 2120.6139469184 219397.22270163 418404693.51804
142	649766 3312 2508 4485 86 200 115 4.0343364698305 13.999620908881 1503.2625574796 20111.488911082
143	653078 3531 2623 4485 87 200 114 -3.6888268362507 2.2684688731562 9.8928472990771 76.203673585908
144	656609 3185 2623 4485 87 200 114 0.973 8.0491589463412 279.32455926863 958.16891760509
145	659794 3250 2625 4485 88 200 113 1770.7615679879 2450.5693259261 251962.98743111 567252180.93295
146	663044 3254 2625 4485 88 200 113 1578.4481442608 2120.7721794043 214006.95493081 408627271.88432
147	666298 3216 2745 4485 89 200 112 4.0013211675714 13.999199340187 1475.4022648081 19854.253886863
148	669514 3436 2747 4485 90 200 111 -4.4090028646632 2.1844902744796 9.9817236677111 80.422693433054
149	672950 3118 2747 4485 90 200 111 0.973 8.6397759745869 275.27993597102 963.51546076355
150	676068 3171 2870 4485 91 200 110 1794.5182393406 2450.5909072174 246385.65348958 556805515.46419
151	679239 3173 2870 4485 91 200 110 1578.4565926548 2120.8488398083 208660.88518646 399028140.44189
152	682412 3141 2872 4485 92 200 109 4.0929231651139 13.998069060913 1441.4927603744 19440.062391668
153	685553 3338 2997 4485 93 200 108 -4.4791784844679 2.1234678969695 9.814735177065 75.916008451356
154	688891 3030 2997 4485 93 200 108 0.973 9.1179268217973 267.50381213002 938.94635022612
155	691921 3084 2999 4485 94 200 107 1823.0126170217 2450.6484816062 240894.20851405 546713345.24306
156	695005 3086 2999 4485 94 200 107 1578.4661713783 2120.951131341 203425.36726128 389879746.91919
157	698091 3056 3129 4485 95 200 106 4.2052558286512 13.998518423606 1402.1480687314 18921.455187105
158	701147 3259 3131 4485 96 200 105 -4.4743634569019 2.1511947196047 9.6778325424925 89.336674234811
159	704406 2963 3131 4485 96 200 105 0.973 8.7639896884138 264.05230541887 937.99268930173
160	707369 3007 3264 4485 97 200 104 1873.6406569908 2450.3917266983 236494.66109103 541278502.23599
161	710376 3006 3264 4485 97 200 104 1578.4490826223 2120.6129671792 197791.40593911 379350667.78765
162	713382 2967 3266 4485 98 200 103 3.9195603011693 13.997069977215 1330.663460054 17583.073633034
163	716349 3172 3401 4485 99 200 102 -4.4679277779243 2.1175358718634 10.018202122251 70.37667142927
164	719521 2891 3401 4485 99 200 102 0.973 8.4839578196736 247.60218604514 826.15190596808
165	722412 2919 3403 4485 100 200 101 1895.893334236 2450.2676099896 230522.30323855 529275604.67677
166	725331 2923 3403 4485 100 200 101 1578.4549668636 2120.6686830437 192581.89173313 370302773.70321
167	728254 2886 3543 4485 101 200 100 3.9747482432421 13.999452173801 1298.9339358016 17273.759211626
168	731140 3065 3545 4485 102 200 99 -2.9975087788333 2.3321792534389 9.9351764877657 65.627355044403
169	734205 2754 3545 4485 102 200 99 0.973 8.7362375013429 243.92082808022 869.38845844685
170	736959 2828 3685 4485 103 200 98 1918.5230805418 2450.2577806491 224487.56734133 517015764.36846
171	739787 2827 3685 4485 103 200 98 1578.4700050903 2120.7865838585 187236.75642606 360764839.42831
172	742614 2808 3687 4485 104 200 97 4.2292426157767 13.998561192479 1267.0157966182 16943.374241264
173	745422 2983 3829 4485 105 200 96 -3.7779383883907 2.2262654979038 9.7135920391347 81.256582843252
174	748405 2698 3829 4485 105 200 96 0.973 7.9057198626446 245.68449454266 893.59678936332
175	751103 2746 3831 4485 106 200 95 1944.4007780892 2450.2801452257 218558.70724879 505240732.00762
176	753849 2739 3831 4485 106 200 95 1578.454787395 2120.6643102393 181638.57446626 350321786.76515
177	756588 2723 3975 4485 107 200 94 3.828069966125 13.999392211502 1228.8666628053 16449.90888052
178	759311 2883 3977 4485 108 200 93 -3.3327581210373 2.0865011915658 10.087608017289 70.615048823902
179	762194 2608 3977 4485 108 200 93 0.973 8.1947095032216 237.77141316868 847.43350239986
180	764802 2651 4121 4485 109 200 92 1971.572713438 2450.57502514 212562.41581438 493196546.7838
181	767453 2660 4121 4485 109 200 92 1578.4516972676 2120.8118573986 176043.72151527 339876142.95015
182	770113 2629 4123 4485 110 200 91 3.9549282409494 13.999050881448 1192.6812816693 15998.94551661
183	772742 2798 4395 4485 111 200 90 -4.4691865845785 2.1450316884601 9.9167502748676 82.507661672929
184	775540 2551 4395 4485 111 200 90 0.973 8.977512736819 232.32155737832 848.84999976103
185	778091 2576 4397 4485 112 200 89 2015.3308546143 2450.2792068355 207151.89753836 483755635.04901
186	780667 2574 4397 4485 112 200 89 1578.451437911 2120.798846662 169855.22703368 327263856.35417
187	783241 2542 4398 4485 113 200 88 4.0468560271259 13.998421862351 1130.4147244834 14887.860563747
188	785783 2695 4399 4485 114 200 87 -4.2346022341373 2.1988444976485 9.9359326121942 86.245327096539
189	788478 2474 4399 4485 114 200 87 0.973 8.1136061922364 224.40238399351 809.34102476404
190	790952 2486 4400 4485 115 200 86 2039.6726468246 2450.5945628978 200870.90031469 470545042.40725
191	793438 2480 4400 4485 115 200 86 1578.4623623062 2120.9291756097 164241.67916101 316713366.63247
192	795918 2453 4401 4485 116 200 85 4.2921992871535 13.999734012587 1096.545712809 14497.987981513
193	798371 2605 4402 4485 117 200 84 -3.4962148275985 2.0990842086053 9.6719729972377 80.293250265372
194	800976 2385 4402 4485 117 200 84 0.973 8.2716049847046 218.89619425877 802.65364115379
195	803361 2405 4403 4485 118 200 83 2079.5961253267 2450.3876093669 195078.68233952 459521779.04953
196	805766 2396 4403 4485 118 200 83 1578.463362135 2120.6153555 157807.00692187 303143638.90291
197	808162 2364 4404 4485 119 200 82 4.099163855175 13.999926685586 1038.680047348 13517.506325679
198	810526 2498 4405 4485 120 200 81 -4.4817993315163 2.1892562304786 9.8665235323361 71.091293211556
199	813024 2292 4405 4485 120 200 81 0.973 8.7515097329828 204.72932003056 754.44899630656
200	815316 2311 4406 4485 121 200 80 2103.8777061249 2450.3021220177 188678.58959802 445836472.54158
201	817627 2310 4406 4485 121 200 80 1578.45727483 2120.8055276666 151977.06468857 291752195.04164
202	819937 2287 4407 4485 122 200 79 3.9084870939956 13.999444893685 1002.2936914377 13074.529837245
203	822224 2414 4408 4485 123 200 78 -4.3946774719865 2.3720240620477 10.040476444841 84.728891447097
204	824638 2186 4408 4485 123 200 78 0.973 7.9863623358215 203.84543207356 767.91185944913
205	826824 2228 4409 4485 124 200 77 2125.6460855971 2450.335570144 182140.38677295 431552398.97391
206	829052 2229 4409 4485 124 200 77 1578.4581599468 2120.8222938767 146249.07242612 280710573.85268
207	831281 2197 4410 4485 125 200 76 4.076561782019 13.994044037792 969.89256648175 12768.188743888
208	833478 2320 4411 4485 126 200 75 -3.2418496533136 2.2906016429001 7.7788399395304 78.628338133062
209	835798 2110 4411 4485 126 200 75 0.973 8.2851992498627 195.46612406639 736.15687590646
210	837908 2143 4412 4485 127 200 74 2146.0289575867 2450.4574770868 175812.93413466 418219998.53592
211	840051 2138 4412 4485 127 200 74 1578.4481271179 2120.5825332645 139815.24703612 267026906.55018
212	842189 2103 4413 4485 128 200 73 3.9824005470828 13.998124780336 941.36852743786 12439.59807389
213	844292 2229 4414 4485 129 200 72 -4.4680611133249 2.145434306066 3.9600039864725 69.757479386518
214	846521 2032 4414 4485 129 200 72 0.973 8.5557658696671 173.46560093206 579.13444222788
215	848553 2051 4415 4485 130 200 71 2175.7461059274 2450.6115449556 169319.26844333 404157984.58064
216	850604 2055 4415 4485 130 200 71 1578.4523998667 2120.8973720409 133605.79381558 254166821.49563
217	852659 2023 4416 4485 131 200 70 3.8414571175372 13.999531805476 909.09273549753 12093.012635503
218	854682 2143 4417 4485 132 200 69 -4.422392609326 2.0782104821037 10.073474354609 47.577272375612
219	856825 1973 4417 4485 132 200 69 0.973 7.7800969259788 171.03485301502 576.69676778892
220	858798 1965 4418 4485 133 200 68 2224.3158066237 2450.3506363129 162857.81619329 390266582.66316
221	860763 1967 4418 4485 133 200 68 1578.4481708985 2120.8298467882 127017.89618191 239838822.05426
222	862730 1939 4419 4485 134 200 67 4.0076643208797 13.998097466417 857.59268696799 11265.922544992
223	864669 2055 4420 4485 135 200 66 -3.7568389123376 2.2228974810801 9.903717193351 49.569269647874
224	866724 1888 4420 4485 135 200 66 0.973 8.0832878510019 165.27902690594 567.87088577051
225	868612 1876 4421 4485 136 200 65 2252.4844519779 2450.4083839094 156062.43843304 374867845.55734
226	870488 1880 4421 4485 136 200 65 1578.4565915735 2120.8485264666 121151.65557515 228208396.231
227	872368 1852 4422 4485 137 200 64 4.2020141742253 13.999943969664 828.14597425789 11020.493434392
228	874220 1953 4423 4485 138 200 63 -3.1742246280805 2.1547421413963 9.6746099577783 52.324251116759
229	876173 1768 4423 4485 138 200 63 0.973 7.8605968938812 162.65885179558 606.43095475203
230	877941 1790 4424 4485 139 200 62 2314.0459416689 2450.4733381231 149324.66856177 359741311.20587
231	879731 1789 4424 4485 139 200 62 1578.4482381949 2120.5744014932 114108.22797232 212172441.1027
232	881520 1765 4425 4485 140 200 61 3.9728593152307 13.999837429631 768.33329626464 9953.8348592886
233	883285 1848 4426 4485 141 200 60 -3.5574534705837 2.0936000485322 9.9333790842805 39.797683089493
234	885133 1712 4426 4485 141 200 60 0.973 9.0447616853367 148.0992782034 514.32249998271
235	886845 1702 4427 4485 142 200 59 2334.6182469977 2450.4875522192 142482.78637729 344170739.68563
236	888547 1710 4427 4485 142 200 59 1578.4662098391 2112.1925830245 106054.09426292 192158097.1157
237	890257 1676 4428 4485 143 200 58 3.8298766437329 13.89590820289 650.15427333249 7485.3230866967
238	891933 1778 4429 4485 144 200 57 -1.6408615895477 2.1310918093496 10.060856491798 28.183025032777
239	893711 1628 4429 4485 144 200 57 0.973 7.6533524031281 132.2872700672 411.99944275028
240	895339 1619 4430 4485 145 200 56 2334.3162769399 2450.2818556479 135280.57809078 326875418.01592
241	896958 1619 4430 4485 145 200 56 1578.4564616466 2096.3192898929 100444.1517402 181507521.49394
242	898577 1593 4431 4485 146 200 55 4.0897017584328 13.771332043437 632.13144836289 7456.626614007
243	900170 1670 4432 4485 147 200 54 -1.7765600679505 2.0875949506415 9.6816302850038 30.093612996215
244	901840 1510 4432 4485 147 200 54 0.973 7.472932124614 126.56398440021 443.16146695938
245	903350 1531 4433 4485 148 200 53 2333.9156580711 2450.6062124377 128053.34102636 309459442.33581
246	904881 1532 4433 4485 148 200 53 1578.4607675606 2078.2215454513 94771.429585072 170661737.60173
247	906413 1498 4434 4485 149 200 52 4.0822673356419 13.977872924572 614.090830742 7461.7065053901
248	907911 1575 4435 4485 150 200 51 -1.8575982942192 2.0776538992859 9.4537925187024 34.013524256164
249	909486 1405 4435 4485 150 200 51 0.973 7.8331894222868 126.46293594202 472.77432441474
250	910891 1447 4436 4485 151 200 50 2334.6030804353 2450.235439993 120777.77671868 291812209.37672
251	912338 1445 4436 4485 151 200 50 1578.4508488812 2060.0871471716 89025.935868082 159572048.61617
252	913783 1417 4437 4485 152 200 49 4.1418937353608 13.976934046617 595.8196249444 7460.3095544978
253	915200 1474 4438 4485 153 200 48 -1.3297076723843 2.1506399131543 9.1429235119229 35.283604001001
254	916674 1330 4438 4485 153 200 48 0.973 8.2468508691873 122.93911246968 481.21735616063
255	918004 1358 4439 4485 154 200 47 2334.4237378302 2450.1542553023 113523.62939829 274266166.36029
256	919362 1361 4439 4485 154 200 47 1578.4621341303 2041.2709890213 83241.997353738 148341841.3924
257	920723 1330 4440 4485 155 200 46 3.9558952104144 13.997208599222 577.15456088954 7506.5456440723
258	922053 1377 4441 4485 156 200 45 -2.3650503065184 2.2390187778906 9.5018097201292 45.162146544783
259	923430 1233 4441 4485 156 200 45 0.973 8.5538133390101 124.74137312327 532.74337684832
260	924663 1275 4442 4485 157 200 44 2334.3896776846 2450.4029156481 106159.84511089 256195560.44903
261	925938 1274 4442 4485 157 200 44 1578.4582379228 2001.169417032 77059.017311769 135650503.66722
262	927212 1239 4443 4485 158 200 43 3.894362128734 13.998957305222 536.64429254377 6956.3758955252
263	928451 1294 4444 4485 159 200 42 -3.7581532215821 2.2262282546028 10.084681900236 54.441133969823
264	929745 1193 4444 4485 159 200 42 0.973 7.3882228355754 120.9185478377 498.58546554068
265	930938 1183 4445 4485 160 200 41 2333.9488802206 2450.3045464901 98740.656053697 237856780.24536
266	932121 1181 4445 4485 160 200 41 1578.4455697034 1946.7727715969 70837.926050087 122859903.01991
267	933302 1151 4446 4485 161 200 40 4.0435997821582 13.98741082273 482.13009944278 6037.885993338
268	934453 1202 4447 4485 162 200 39 -3.0350225494697 2.0531856211089 9.9378386336164 45.814241156478
269	935655 1108 4447 4485 162 200 39 0.973 8.0169024536753 110.21863158416 453.02666622804
270	936763 1097 4448 4485 163 200 38 2333.9421245949 2449.3949907623 91431.812874572 220046903.81503
271	937860 1096 4448 4485 163 200 38 1578.4510253817 1911.0436284412 65143.794686847 112025952.71771
272	938956 1071 4449 4485 164 200 37 3.8368940664504 13.986059193297 446.08033765274 5599.1130968725
273	940027 1090 4450 4485 165 200 36 -3.1275735893646 2.0721444158372 10.089291802146 39.791933357443
274	941117 1010 4450 4485 165 200 36 0.973 8.740516268217 102.96874068345 429.73810766957
275	942127 1008 4451 4485 166 200 35 2334.4375215538 2447.2627727041 84170.503660236 202465234.22638
276	943135 1013 4451 4485 166 200 35 1578.4609849025 1881.7214255054 59657.140058408 101951117.1431
277	944148 981 4452 4485 167 200 34 3.9559695225127 13.99424663418 417.37657221672 5369.9637635382
278	945129 1011 4453 4485 168 200 33 -2.2187035572935 2.1709205099731 9.9262480608666 42.304531148202
279	946140 903 4453 4485 168 200 33 0.973 8.1036067999784 101.53137117972 476.60749985166
280	947043 921 4454 4485 169 200 32 2334.3521661269 2437.9986236601 76370.439097114 182299113.97572
281	947964 924 4454 4485 169 200 32 1578.4505053405 1753.1339485943 53178.794660944 88456689.293906
282	948888 896 4455 4485 170 200 31 3.9839925711885 11.400181675094 287.18426448608 2725.4226701961
283	949784 924 4456 4485 171 200 30 -1.747922117225 2.0833696161839 7.4045910700424 19.502992875697
284	950708 856 4456 4485 171 200 30 0.973 6.7462885780606 68.125345233829 217.9983070719
285	951564 839 4457 4485 172 200 29 2333.916086858 2435.2309641747 69148.437275789 164909377.91322
286	952403 840 4457 4485 172 200 29 1578.4500743914 1734.2450735746 48106.463408266 79866859.136287
287	953243 806 4458 4485 173 200 28 4.0631847788148 12.308097306318 267.75636791469 2653.3090906206
288	954049 822 4459 4485 174 200 27 -1.3166032702915 2.170936514684 7.9636540622397 29.812654988651
289	954871 683 4459 4485 174 200 27 0.973 7.2608327506901 69.064979301669 307.29840843397
290	955554 752 4460 4485 175 200 26 2333.8774951611 2431.935421073 61952.664910616 147644189.73495
291	956306 752 4460 4485 175 200 26 1578.4602128109 1712.5587242646 43026.010475706 71257122.4892
292	957058 722 4461 4485 176 200 25 3.902580489948 13.105884790412 244.8790047868 2527.84154048
293	957780 731 4462 4485 177 200 24 -1.7856516300343 2.2425583224092 6.783369028753 32.734241463882
294	958511 594 4462 4485 177 200 24 0.973 7.5824667052674 64.014570176876 295.99893916745
295	959105 663 4463 4485 178 200 23 2333.8823984745 2423.9593518162 54748.3165999 130338384.20651
296	959768 666 4463 4485 178 200 23 1578.4620906357 1700.9747731565 37913.109677719 62544435.18183
297	960434 636 4464 4485 179 200 22 4.0885431242836 12.665210515759 226.80926746613 2483.9310349386
298	961070 641 4465 4485 180 200 21 -2.1330762490768 1.8320686867228 2.5434661567547 25.880301982419
299	961711 536 4465 4485 180 200 21 0.973 6.4420705186075 53.424132409161 206.75702060542
300	962247 579 4466 4485 181 200 20 2333.981153629 2414.8458276661 47445.184411961 112565367.89728
301	962826 578 4466 4485 181 200 20 1578.4620260019 1697.8405902702 32750.914533918 53667084.342687
302	963404 548 4467 4485 182 200 19 3.9269539870051 11.26566456632 195.22411106119 2086.7239472906
303	963952 552 4468 4485 183 200 18 -0.07961976331193 1.9124681106163 7.3387105793153 13.180671385662
304	964504 520 4468 4485 183 200 18 1.5638020964066 6.232310610482 46.32766298643 159.86428974268
305	965024 488 4469 4485 184 200 17 2334.0800450913 2414.8659803072 40324.888225007 95664691.86671
306	965512 492 4469 4485 184 200 17 1578.4546260573 1695.6311009135 27735.170639765 45277750.505466
307	966004 462 4470 4485 185 200 16 4.0831189165961 12.886969563944 177.09251172106 2071.029041588
308	966466 459 4471 4485 186 200 15 -0.26929006231589 1.9820813174197 7.6532350728333 16.016036397934
309	966925 405 4471 4485 186 200 15 0.973 6.3918992915099 43.397232409438 188.03634356278
310	967330 405 4472 4485 187 200 14 2334.9618278013 2414.8757513213 33243.779331661 78950537.373718
311	967735 403 4472 4485 187 200 14 1578.451038192 1679.5160075128 22666.327887139 36713256.908738
312	968138 374 4473 4485 188 200 13 3.8804163187024 13.383455119096 145.29906469975 1757.9880318593
313	968512 365 4474 4485 189 200 12 -0.086583223596682 2.0446901271562 9.4343098342323 18.076497886246
314	968877 348 4474 4485 189 200 12 1.6900281460165 7.6521018786507 43.907666033201 219.17401341545
315	969225 316 4475 4485 190 200 11 2340.1033399801 2414.8650613014 26212.827630744 62471523.785195
316	969541 318 4475 4485 190 200 11 1578.4549635118 1650.2621834502 17674.69855442 28406112.461786
317	969859 290 4476 4485 191 200 10 4.1349495721361 13.618747223339 109.22896106949 1307.3810556925
318	970149 271 4477 4485 192 200 9 -0.01718595827464 2.2303712819377 9.4511388910885 18.479603676966
319	970420 260 4477 4485 192 200 9 1.9407844726519 7.9577600550767 38.979513525913 214.6441657159
320	970680 230 4478 4485 193 200 8 2367.6814751487 2414.8548644851 19161.594172461 45897809.602623
321	970910 229 4478 4485 193 200 8 1578.4587077294 1621.5417090394 12756.704720252 20343460.602411
322	971139 202 4479 4485 194 200 7 4.3785919786299 13.918090396861 69.686075390449 776.43367915433
323	971341 176 4480 4485 195 200 6 0.034964172970504 2.0305157429073 9.5394984182311 18.189309358609
324	971517 171 4480 4485 195 200 6 2.147751997247 7.4461158869208 33.884893600409 212.03696581306
325	971688 144 4481 4485 196 200 5 2396.5274205491 2414.8769683659 12033.592132782 28961683.840259
326	971832 145 4481 4485 196 200 5 1578.4505912997 1592.3247403214 7917.6150120683 12537856.877003
327	971977 116 4482 4485 197 200 4 3.8481264791193 9.5357295588867 26.865217115147 198.32357085934
328	972093 84 4483 4485 198 200 3 1.8503010531724 1.967403532865 5.6876030797674 10.790811025354
329	972177 85 4483 4485 198 200 3 4.166110692362 5.947337921837 15.053230320921 77.128749967597
330	972262 58 4484 4485 199 200 2 2411.7653542396 2414.8293824452 4826.5947366848 11648013.070231
331	972320 58 4484 4485 199 200 2 1578.4680646015 1579.5931597669 3158.0612243684 4986675.9813492
332	972378 29 4485 4485 200 200 1 4.1270271831314 4.1270271831314 4.1270271831314 17.032353370305

