file 489550 1692789928                                          
version 2
run Default-0-20230823-08:24:58-3941
attr configname Default
attr datetime 20230823-08:24:58
attr experiment Default
attr inifile omnetpp.ini
attr iterationvars ""
attr iterationvarsf ""
attr measurement ""
attr network RSUExampleScenario
attr processid 3941
attr repetition 0
attr replication #0
attr resultdir results
attr runnumber 0
attr seedset 0
param *.playgroundSizeX 2500m
param *.playgroundSizeY 2500m
param *.playgroundSizeZ 50m
param *.annotations.draw true
param *.obstacles.obstacles "xmldoc(\"config.xml\", \"//AnalogueModel[@type='SimpleObstacleShadowing']/obstacles\")"
param *.manager.updateInterval 1s
param *.manager.host "\"localhost\""
param *.manager.port 9999
param *.manager.autoShutdown true
param *.manager.launchConfig "xmldoc(\"erlangen.launchd.xml\")"
param *.rsu[0].mobility.x 2000
param *.rsu[0].mobility.y 2000
param *.rsu[0].mobility.z 3
param *.rsu[*].applType "\"TraCIDemoRSU11p\""
param *.rsu[*].appl.headerLength "80 bit"
param *.rsu[*].appl.sendBeacons false
param *.rsu[*].appl.dataOnSch false
param *.rsu[*].appl.beaconInterval 1s
param *.rsu[*].appl.beaconUserPriority 7
param *.rsu[*].appl.dataUserPriority 5
param *.rsu[*].nic.phy80211p.antennaOffsetZ "0 m"
param *.connectionManager.sendDirect true
param *.connectionManager.maxInterfDist 2600m
param *.connectionManager.drawMaxIntfDist false
param *.**.nic.mac1609_4.useServiceChannel false
param *.**.nic.mac1609_4.txPower 20mW
param *.**.nic.mac1609_4.bitrate 6Mbps
param *.**.nic.phy80211p.minPowerLevel -110dBm
param *.**.nic.phy80211p.useNoiseFloor true
param *.**.nic.phy80211p.noiseFloor -98dBm
param *.**.nic.phy80211p.decider "xmldoc(\"config.xml\")"
param *.**.nic.phy80211p.analogueModels "xmldoc(\"config.xml\")"
param *.**.nic.phy80211p.usePropagationDelay true
param *.**.nic.phy80211p.antenna "xmldoc(\"antenna.xml\", \"/root/Antenna[@id='monopole']\")"
param *.node[*].nic.phy80211p.antennaOffsetY "0 m"
param *.node[*].nic.phy80211p.antennaOffsetZ "1.895 m"
param *.node[*].applType "\"TraCIDemo11p\""
param *.node[*].appl.headerLength "80 bit"
param *.node[*].appl.sendBeacons false
param *.node[*].appl.dataOnSch false
param *.node[*].appl.beaconInterval 1s
param *.node[*].veinsmobility.x 0
param *.node[*].veinsmobility.y 0
param *.node[*].veinsmobility.z 0
param *.node[*].veinsmobility.setHostSpeed false

vector 0 RSUExampleScenario.node[0].veinsmobility posx ETV
vector 1 RSUExampleScenario.node[0].veinsmobility posy ETV
vector 2 RSUExampleScenario.node[0].veinsmobility speed ETV
vector 3 RSUExampleScenario.node[0].veinsmobility acceleration ETV
vector 4 RSUExampleScenario.node[0].veinsmobility co2emission ETV
vector 5 RSUExampleScenario.node[1].veinsmobility posx ETV
vector 6 RSUExampleScenario.node[1].veinsmobility posy ETV
vector 7 RSUExampleScenario.node[1].veinsmobility speed ETV
vector 8 RSUExampleScenario.node[1].veinsmobility acceleration ETV
vector 9 RSUExampleScenario.node[1].veinsmobility co2emission ETV
vector 10 RSUExampleScenario.node[2].veinsmobility posx ETV
vector 11 RSUExampleScenario.node[2].veinsmobility posy ETV
vector 12 RSUExampleScenario.node[2].veinsmobility speed ETV
vector 13 RSUExampleScenario.node[2].veinsmobility acceleration ETV
vector 14 RSUExampleScenario.node[2].veinsmobility co2emission ETV
vector 15 RSUExampleScenario.node[3].veinsmobility posx ETV
vector 16 RSUExampleScenario.node[3].veinsmobility posy ETV
vector 17 RSUExampleScenario.node[3].veinsmobility speed ETV
vector 18 RSUExampleScenario.node[3].veinsmobility acceleration ETV
vector 19 RSUExampleScenario.node[3].veinsmobility co2emission ETV
vector 20 RSUExampleScenario.node[4].veinsmobility posx ETV
vector 21 RSUExampleScenario.node[4].veinsmobility posy ETV
vector 22 RSUExampleScenario.node[4].veinsmobility speed ETV
vector 23 RSUExampleScenario.node[4].veinsmobility acceleration ETV
vector 24 RSUExampleScenario.node[4].veinsmobility co2emission ETV
vector 25 RSUExampleScenario.node[5].veinsmobility posx ETV
vector 26 RSUExampleScenario.node[5].veinsmobility posy ETV
vector 27 RSUExampleScenario.node[5].veinsmobility speed ETV
vector 28 RSUExampleScenario.node[5].veinsmobility acceleration ETV
vector 29 RSUExampleScenario.node[5].veinsmobility co2emission ETV
vector 30 RSUExampleScenario.node[6].veinsmobility posx ETV
vector 31 RSUExampleScenario.node[6].veinsmobility posy ETV
vector 32 RSUExampleScenario.node[6].veinsmobility speed ETV
vector 33 RSUExampleScenario.node[6].veinsmobility acceleration ETV
vector 34 RSUExampleScenario.node[6].veinsmobility co2emission ETV
vector 35 RSUExampleScenario.node[7].veinsmobility posx ETV
vector 36 RSUExampleScenario.node[7].veinsmobility posy ETV
vector 37 RSUExampleScenario.node[7].veinsmobility speed ETV
vector 38 RSUExampleScenario.node[7].veinsmobility acceleration ETV
vector 39 RSUExampleScenario.node[7].veinsmobility co2emission ETV
vector 40 RSUExampleScenario.node[8].veinsmobility posx ETV
vector 41 RSUExampleScenario.node[8].veinsmobility posy ETV
vector 42 RSUExampleScenario.node[8].veinsmobility speed ETV
vector 43 RSUExampleScenario.node[8].veinsmobility acceleration ETV
vector 44 RSUExampleScenario.node[8].veinsmobility co2emission ETV
vector 45 RSUExampleScenario.node[9].veinsmobility posx ETV
vector 46 RSUExampleScenario.node[9].veinsmobility posy ETV
vector 47 RSUExampleScenario.node[9].veinsmobility speed ETV
vector 48 RSUExampleScenario.node[9].veinsmobility acceleration ETV
vector 49 RSUExampleScenario.node[9].veinsmobility co2emission ETV
vector 50 RSUExampleScenario.node[10].veinsmobility posx ETV
vector 51 RSUExampleScenario.node[10].veinsmobility posy ETV
vector 52 RSUExampleScenario.node[10].veinsmobility speed ETV
vector 53 RSUExampleScenario.node[10].veinsmobility acceleration ETV
vector 54 RSUExampleScenario.node[10].veinsmobility co2emission ETV
vector 55 RSUExampleScenario.node[11].veinsmobility posx ETV
vector 56 RSUExampleScenario.node[11].veinsmobility posy ETV
vector 57 RSUExampleScenario.node[11].veinsmobility speed ETV
vector 58 RSUExampleScenario.node[11].veinsmobility acceleration ETV
vector 59 RSUExampleScenario.node[11].veinsmobility co2emission ETV
vector 60 RSUExampleScenario.node[12].veinsmobility posx ETV
vector 61 RSUExampleScenario.node[12].veinsmobility posy ETV
vector 62 RSUExampleScenario.node[12].veinsmobility speed ETV
vector 63 RSUExampleScenario.node[12].veinsmobility acceleration ETV
vector 64 RSUExampleScenario.node[12].veinsmobility co2emission ETV
vector 65 RSUExampleScenario.node[13].veinsmobility posx ETV
vector 66 RSUExampleScenario.node[13].veinsmobility posy ETV
vector 67 RSUExampleScenario.node[13].veinsmobility speed ETV
vector 68 RSUExampleScenario.node[13].veinsmobility acceleration ETV
vector 69 RSUExampleScenario.node[13].veinsmobility co2emission ETV
vector 70 RSUExampleScenario.node[14].veinsmobility posx ETV
vector 71 RSUExampleScenario.node[14].veinsmobility posy ETV
vector 72 RSUExampleScenario.node[14].veinsmobility speed ETV
vector 73 RSUExampleScenario.node[14].veinsmobility acceleration ETV
vector 74 RSUExampleScenario.node[14].veinsmobility co2emission ETV
vector 75 RSUExampleScenario.node[15].veinsmobility posx ETV
vector 76 RSUExampleScenario.node[15].veinsmobility posy ETV
vector 77 RSUExampleScenario.node[15].veinsmobility speed ETV
vector 78 RSUExampleScenario.node[15].veinsmobility acceleration ETV
vector 79 RSUExampleScenario.node[15].veinsmobility co2emission ETV
vector 80 RSUExampleScenario.node[16].veinsmobility posx ETV
vector 81 RSUExampleScenario.node[16].veinsmobility posy ETV
vector 82 RSUExampleScenario.node[16].veinsmobility speed ETV
vector 83 RSUExampleScenario.node[16].veinsmobility acceleration ETV
vector 84 RSUExampleScenario.node[16].veinsmobility co2emission ETV
vector 85 RSUExampleScenario.node[17].veinsmobility posx ETV
vector 86 RSUExampleScenario.node[17].veinsmobility posy ETV
vector 87 RSUExampleScenario.node[17].veinsmobility speed ETV
vector 88 RSUExampleScenario.node[17].veinsmobility acceleration ETV
vector 89 RSUExampleScenario.node[17].veinsmobility co2emission ETV
vector 90 RSUExampleScenario.node[18].veinsmobility posx ETV
vector 91 RSUExampleScenario.node[18].veinsmobility posy ETV
vector 92 RSUExampleScenario.node[18].veinsmobility speed ETV
vector 93 RSUExampleScenario.node[18].veinsmobility acceleration ETV
vector 94 RSUExampleScenario.node[18].veinsmobility co2emission ETV
vector 95 RSUExampleScenario.node[19].veinsmobility posx ETV
vector 96 RSUExampleScenario.node[19].veinsmobility posy ETV
vector 97 RSUExampleScenario.node[19].veinsmobility speed ETV
vector 98 RSUExampleScenario.node[19].veinsmobility acceleration ETV
vector 99 RSUExampleScenario.node[19].veinsmobility co2emission ETV
vector 100 RSUExampleScenario.node[20].veinsmobility posx ETV
vector 101 RSUExampleScenario.node[20].veinsmobility posy ETV
vector 102 RSUExampleScenario.node[20].veinsmobility speed ETV
vector 103 RSUExampleScenario.node[20].veinsmobility acceleration ETV
vector 104 RSUExampleScenario.node[20].veinsmobility co2emission ETV
vector 105 RSUExampleScenario.node[21].veinsmobility posx ETV
vector 106 RSUExampleScenario.node[21].veinsmobility posy ETV
vector 107 RSUExampleScenario.node[21].veinsmobility speed ETV
vector 108 RSUExampleScenario.node[21].veinsmobility acceleration ETV
vector 109 RSUExampleScenario.node[21].veinsmobility co2emission ETV
vector 110 RSUExampleScenario.node[22].veinsmobility posx ETV
vector 111 RSUExampleScenario.node[22].veinsmobility posy ETV
vector 112 RSUExampleScenario.node[22].veinsmobility speed ETV
vector 113 RSUExampleScenario.node[22].veinsmobility acceleration ETV
vector 114 RSUExampleScenario.node[22].veinsmobility co2emission ETV
vector 115 RSUExampleScenario.node[23].veinsmobility posx ETV
vector 116 RSUExampleScenario.node[23].veinsmobility posy ETV
vector 117 RSUExampleScenario.node[23].veinsmobility speed ETV
vector 118 RSUExampleScenario.node[23].veinsmobility acceleration ETV
vector 119 RSUExampleScenario.node[23].veinsmobility co2emission ETV
vector 120 RSUExampleScenario.node[24].veinsmobility posx ETV
vector 121 RSUExampleScenario.node[24].veinsmobility posy ETV
vector 122 RSUExampleScenario.node[24].veinsmobility speed ETV
vector 123 RSUExampleScenario.node[24].veinsmobility acceleration ETV
vector 124 RSUExampleScenario.node[24].veinsmobility co2emission ETV
vector 125 RSUExampleScenario.node[25].veinsmobility posx ETV
vector 126 RSUExampleScenario.node[25].veinsmobility posy ETV
vector 127 RSUExampleScenario.node[25].veinsmobility speed ETV
vector 128 RSUExampleScenario.node[25].veinsmobility acceleration ETV
vector 129 RSUExampleScenario.node[25].veinsmobility co2emission ETV
vector 130 RSUExampleScenario.node[26].veinsmobility posx ETV
vector 131 RSUExampleScenario.node[26].veinsmobility posy ETV
vector 132 RSUExampleScenario.node[26].veinsmobility speed ETV
vector 133 RSUExampleScenario.node[26].veinsmobility acceleration ETV
vector 134 RSUExampleScenario.node[26].veinsmobility co2emission ETV
vector 135 RSUExampleScenario.node[27].veinsmobility posx ETV
vector 136 RSUExampleScenario.node[27].veinsmobility posy ETV
vector 137 RSUExampleScenario.node[27].veinsmobility speed ETV
vector 138 RSUExampleScenario.node[27].veinsmobility acceleration ETV
vector 139 RSUExampleScenario.node[27].veinsmobility co2emission ETV
vector 140 RSUExampleScenario.node[28].veinsmobility posx ETV
vector 141 RSUExampleScenario.node[28].veinsmobility posy ETV
vector 142 RSUExampleScenario.node[28].veinsmobility speed ETV
vector 143 RSUExampleScenario.node[28].veinsmobility acceleration ETV
vector 144 RSUExampleScenario.node[28].veinsmobility co2emission ETV
vector 145 RSUExampleScenario.node[29].veinsmobility posx ETV
vector 146 RSUExampleScenario.node[29].veinsmobility posy ETV
vector 147 RSUExampleScenario.node[29].veinsmobility speed ETV
vector 148 RSUExampleScenario.node[29].veinsmobility acceleration ETV
vector 149 RSUExampleScenario.node[29].veinsmobility co2emission ETV
vector 150 RSUExampleScenario.node[30].veinsmobility posx ETV
vector 151 RSUExampleScenario.node[30].veinsmobility posy ETV
vector 152 RSUExampleScenario.node[30].veinsmobility speed ETV
vector 153 RSUExampleScenario.node[30].veinsmobility acceleration ETV
vector 154 RSUExampleScenario.node[30].veinsmobility co2emission ETV
vector 155 RSUExampleScenario.node[31].veinsmobility posx ETV
vector 156 RSUExampleScenario.node[31].veinsmobility posy ETV
vector 157 RSUExampleScenario.node[31].veinsmobility speed ETV
vector 158 RSUExampleScenario.node[31].veinsmobility acceleration ETV
vector 159 RSUExampleScenario.node[31].veinsmobility co2emission ETV
vector 160 RSUExampleScenario.node[32].veinsmobility posx ETV
vector 161 RSUExampleScenario.node[32].veinsmobility posy ETV
vector 162 RSUExampleScenario.node[32].veinsmobility speed ETV
vector 163 RSUExampleScenario.node[32].veinsmobility acceleration ETV
vector 164 RSUExampleScenario.node[32].veinsmobility co2emission ETV
vector 165 RSUExampleScenario.node[33].veinsmobility posx ETV
vector 166 RSUExampleScenario.node[33].veinsmobility posy ETV
vector 167 RSUExampleScenario.node[33].veinsmobility speed ETV
vector 168 RSUExampleScenario.node[33].veinsmobility acceleration ETV
vector 169 RSUExampleScenario.node[33].veinsmobility co2emission ETV
vector 170 RSUExampleScenario.node[34].veinsmobility posx ETV
vector 171 RSUExampleScenario.node[34].veinsmobility posy ETV
vector 172 RSUExampleScenario.node[34].veinsmobility speed ETV
vector 173 RSUExampleScenario.node[34].veinsmobility acceleration ETV
vector 174 RSUExampleScenario.node[34].veinsmobility co2emission ETV
vector 175 RSUExampleScenario.node[35].veinsmobility posx ETV
vector 176 RSUExampleScenario.node[35].veinsmobility posy ETV
vector 177 RSUExampleScenario.node[35].veinsmobility speed ETV
vector 178 RSUExampleScenario.node[35].veinsmobility acceleration ETV
vector 179 RSUExampleScenario.node[35].veinsmobility co2emission ETV
vector 180 RSUExampleScenario.node[36].veinsmobility posx ETV
vector 181 RSUExampleScenario.node[36].veinsmobility posy ETV
vector 182 RSUExampleScenario.node[36].veinsmobility speed ETV
vector 183 RSUExampleScenario.node[36].veinsmobility acceleration ETV
vector 184 RSUExampleScenario.node[36].veinsmobility co2emission ETV
vector 185 RSUExampleScenario.node[37].veinsmobility posx ETV
vector 186 RSUExampleScenario.node[37].veinsmobility posy ETV
vector 187 RSUExampleScenario.node[37].veinsmobility speed ETV
vector 188 RSUExampleScenario.node[37].veinsmobility acceleration ETV
vector 189 RSUExampleScenario.node[37].veinsmobility co2emission ETV
vector 190 RSUExampleScenario.node[38].veinsmobility posx ETV
vector 191 RSUExampleScenario.node[38].veinsmobility posy ETV
vector 192 RSUExampleScenario.node[38].veinsmobility speed ETV
vector 193 RSUExampleScenario.node[38].veinsmobility acceleration ETV
vector 194 RSUExampleScenario.node[38].veinsmobility co2emission ETV
vector 195 RSUExampleScenario.node[39].veinsmobility posx ETV
vector 196 RSUExampleScenario.node[39].veinsmobility posy ETV
vector 197 RSUExampleScenario.node[39].veinsmobility speed ETV
vector 198 RSUExampleScenario.node[39].veinsmobility acceleration ETV
vector 199 RSUExampleScenario.node[39].veinsmobility co2emission ETV
vector 200 RSUExampleScenario.node[40].veinsmobility posx ETV
vector 201 RSUExampleScenario.node[40].veinsmobility posy ETV
vector 202 RSUExampleScenario.node[40].veinsmobility speed ETV
vector 203 RSUExampleScenario.node[40].veinsmobility acceleration ETV
vector 204 RSUExampleScenario.node[40].veinsmobility co2emission ETV
vector 205 RSUExampleScenario.node[41].veinsmobility posx ETV
vector 206 RSUExampleScenario.node[41].veinsmobility posy ETV
vector 207 RSUExampleScenario.node[41].veinsmobility speed ETV
vector 208 RSUExampleScenario.node[41].veinsmobility acceleration ETV
vector 209 RSUExampleScenario.node[41].veinsmobility co2emission ETV
vector 210 RSUExampleScenario.node[42].veinsmobility posx ETV
vector 211 RSUExampleScenario.node[42].veinsmobility posy ETV
vector 212 RSUExampleScenario.node[42].veinsmobility speed ETV
vector 213 RSUExampleScenario.node[42].veinsmobility acceleration ETV
vector 214 RSUExampleScenario.node[42].veinsmobility co2emission ETV
vector 215 RSUExampleScenario.node[43].veinsmobility posx ETV
vector 216 RSUExampleScenario.node[43].veinsmobility posy ETV
vector 217 RSUExampleScenario.node[43].veinsmobility speed ETV
vector 218 RSUExampleScenario.node[43].veinsmobility acceleration ETV
vector 219 RSUExampleScenario.node[43].veinsmobility co2emission ETV
vector 220 RSUExampleScenario.node[44].veinsmobility posx ETV
vector 221 RSUExampleScenario.node[44].veinsmobility posy ETV
vector 222 RSUExampleScenario.node[44].veinsmobility speed ETV
vector 223 RSUExampleScenario.node[44].veinsmobility acceleration ETV
vector 224 RSUExampleScenario.node[44].veinsmobility co2emission ETV
vector 225 RSUExampleScenario.node[45].veinsmobility posx ETV
vector 226 RSUExampleScenario.node[45].veinsmobility posy ETV
vector 227 RSUExampleScenario.node[45].veinsmobility speed ETV
vector 228 RSUExampleScenario.node[45].veinsmobility acceleration ETV
vector 229 RSUExampleScenario.node[45].veinsmobility co2emission ETV
vector 230 RSUExampleScenario.node[46].veinsmobility posx ETV
vector 231 RSUExampleScenario.node[46].veinsmobility posy ETV
vector 232 RSUExampleScenario.node[46].veinsmobility speed ETV
vector 233 RSUExampleScenario.node[46].veinsmobility acceleration ETV
vector 234 RSUExampleScenario.node[46].veinsmobility co2emission ETV
vector 235 RSUExampleScenario.node[47].veinsmobility posx ETV
vector 236 RSUExampleScenario.node[47].veinsmobility posy ETV
vector 237 RSUExampleScenario.node[47].veinsmobility speed ETV
vector 238 RSUExampleScenario.node[47].veinsmobility acceleration ETV
vector 239 RSUExampleScenario.node[47].veinsmobility co2emission ETV
vector 240 RSUExampleScenario.node[48].veinsmobility posx ETV
vector 241 RSUExampleScenario.node[48].veinsmobility posy ETV
0	17947 3568 2 230 1 145 145 1428.37280161 2450.6248001783 302562.01195367 647218922.33538
1	21515 3575 2 230 1 145 145 1398.5528459009 2120.9360540062 262733.73504417 482786065.95597
2	25090 3551 3 230 2 145 144 4.1061966058897 13.999815066161 1933.8995470218 26367.698756031
3	28641 3834 4 230 3 145 143 -4.5 2.2078255666373 9.7744432302675 97.72243918928
4	32475 3496 4 230 3 145 143 0.973 8.9023657158011 344.57780812616 1108.6953734406
5	35971 3509 5 230 4 145 142 1467.2472934014 2450.4780716181 298440.99199795 641751159.02411
6	39480 3507 5 230 4 145 142 1421.2244846337 2120.5707901428 258620.86186278 477204629.12628
7	42987 3486 6 230 5 145 141 4.0332649588119 13.999323605334 1890.395385159 25742.191315047
8	46473 3796 7 230 6 145 140 -4.4892687861132 2.0988350649318 9.9302162470669 86.88727779694
9	50269 3422 7 230 6 145 140 0.973 8.7525284671264 334.37939615609 1069.186464558
10	53691 3578 8 230 7 145 139 1499.2494909836 2450.659299592 293838.16421149 634542413.33793
11	57269 3576 8 230 7 145 139 1443.7771013472 2120.9589145361 254289.59218759 470941609.57654
12	60845 3561 9 230 8 145 138 3.930963162637 13.997721134285 1850.8962880935 25199.87141067
13	64406 3843 10 230 9 145 137 -4.4962264973393 2.0878022219194 9.9462477726776 86.421036273532
14	68249 3477 10 230 9 145 137 0.973 8.2469806235914 328.31704901537 1049.6418601028
15	71726 3508 11 230 10 145 136 1531.1035423469 2450.5176811377 289262.09030116 627504618.02441
16	75234 3517 11 230 10 145 136 1470.4638063516 2120.90069908 249979.02536646 464785369.13781
17	78751 3490 12 230 11 145 135 4.0076977833542 13.999869057706 1809.3539871915 24630.919836824
18	82241 3767 13 230 12 145 134 -4.5 2.1600366940722 9.9646085289778 93.770159936173
19	86008 3397 13 230 12 145 134 0.973 8.3694083781091 325.28426879325 1071.0281009002
20	89405 3440 14 230 13 145 133 1578.3896571714 2450.2645866362 285949.20491999 625551907.66633
21	92845 3437 14 230 13 145 133 1513.9593493091 2120.7883864809 245724.977983 458761479.56116
22	96282 3418 15 230 14 145 132 4.1202440707026 13.998402075595 1745.2124215929 23465.035548307
23	99700 3700 16 230 15 145 131 -4.4202670209802 2.2053875824949 9.7875725958228 82.620684165456
24	103400 3350 16 230 15 145 131 0.973 8.3105242583869 312.63775438273 982.50716496669
25	106750 3359 17 230 16 145 130 1602.0028808016 2450.2291497608 280666.57752287 615897823.10949
26	110109 3360 17 230 16 145 130 1537.7958071958 2120.7722106203 241290.30524757 452337862.91056
27	113469 3328 18 230 17 145 129 4.11254450365 13.998108282317 1711.4800243247 23128.830155203
28	116797 3610 19 230 18 145 128 -4.1476450008758 2.2240570376068 9.8521898619502 89.781095041374
29	120407 3226 19 230 18 145 128 0.973 8.8530434321966 312.68149941843 1053.6292681856
30	123633 3296 20 230 19 145 127 1630.0107116028 2450.4280289282 275764.58204901 607857004.98716
31	126929 3290 20 230 19 145 127 1565.6916534388 2120.8566767089 236451.59841688 444445171.12932
32	130219 3257 21 230 20 145 126 4.067372106413 13.999156328384 1670.4400911727 22545.355105732
33	133476 3514 22 230 21 145 125 -4.5 2.4234314252366 9.8748959175273 96.001156433889
34	136990 3170 22 230 21 145 125 0.973 7.9969762628647 304.13667277046 1003.636462427
35	140160 3207 23 230 22 145 124 1715.7340986483 2450.4365012295 274853.217821 616156369.96538
36	143367 3217 23 230 22 145 124 1578.4561478766 2120.6614999305 232626.04223778 440167603.18227
37	146584 3192 24 230 23 145 123 4.0608742667126 13.999109892272 1551.8742093232 20022.194174167
38	149776 3444 25 230 24 145 122 -4.4823587748475 2.2555459074327 9.9190262072048 77.128633879286
39	153220 3119 25 230 24 145 122 0.973 7.9715287769973 283.08005762113 863.70016773718
40	156339 3135 26 230 25 145 121 1734.9431650125 2450.3239084678 268875.96948586 603881721.77119
41	159474 3142 26 230 25 145 121 1578.4503688179 2120.8279265687 227866.19462453 432719047.92061
42	162616 3110 27 230 26 145 120 4.0643546214392 13.996565480784 1524.4597643802 19821.396329657
43	165726 3332 28 230 27 145 119 -3.3070113040032 2.2392650089366 9.930753279075 73.192001683037
44	169058 2963 28 230 27 145 119 0.973 8.3114076733424 281.84650201911 954.73424132335
45	172021 3063 29 230 28 145 118 1753.5169854959 2450.5540833102 262838.73455178 591389101.82199
46	175084 3064 29 230 28 145 118 1578.4516975414 2120.7919995487 222983.86572773 424849142.10072
47	178148 3039 30 230 29 145 117 3.8828872453123 13.999235930033 1499.388392696 19685.557620929
48	181187 3251 31 230 30 145 116 -2.5256712424416 2.1636936872965 10.063396011721 71.784913496333
49	184438 2893 31 230 30 145 116 0.973 8.3259780451779 279.05348991374 972.12676398189
50	187331 2990 32 230 31 145 115 1771.5668366684 2450.3828549772 256692.78307895 578438832.97938
51	190321 2988 32 230 31 145 115 1578.4486005865 2120.7039867258 217938.46731342 416395656.83117
52	193309 2961 33 230 32 145 114 4.1947202222332 13.999328219597 1473.6203142111 19503.7766563
53	196270 3169 34 230 33 145 113 -3.1158763178945 2.2461710704397 9.7787714306192 74.287187978477
54	199439 2840 34 230 33 145 113 0.973 8.8976355453378 277.88819690066 975.8572718921
55	202279 2913 35 230 34 145 112 1790.3087747743 2450.2307157078 250660.00736055 566015134.06023
56	205192 2911 35 230 34 145 112 1578.4356359942 2120.7777846977 212434.25767816 406241035.36596
57	208103 2886 36 230 35 145 111 3.8489417596173 13.999905188144 1446.6115451977 19274.622416312
58	210989 3110 37 230 36 145 110 -3.7792833418176 2.3961217227788 10.066700771876 74.52155112725
59	214099 2773 37 230 36 145 110 0.973 8.73746890554 267.99482854741 919.72746634906
60	216872 2835 38 230 37 145 109 1813.7921261445 2450.6306422632 245120.42969537 555793179.13611
61	219707 2835 38 230 37 145 109 1578.451217806 2120.9520459101 206841.0737261 395730065.39317
62	222542 2819 39 230 38 145 108 3.9219617499206 13.999378900521 1414.7588692648 18914.312776907
63	225361 2990 40 230 39 145 107 -4.5 2.171357678452 10.048338651557 73.507818484764
64	228351 2718 40 230 39 145 107 0.973 8.7089421533914 262.24457849992 903.08477141994
65	231069 2764 41 230 40 145 106 1838.436736581 2450.1499671022 239367.34418313 544636993.47746
66	233833 2757 41 230 40 145 106 1578.4448455973 2120.7260294929 201626.11536632 386654050.17853
67	236590 2737 42 230 41 145 105 4.0161385181755 13.999926172604 1380.0610478316 18522.483000138
68	239327 2943 43 230 42 145 104 -3.7634138144476 2.2943333165627 9.9613570562611 75.107634538631
69	242270 2633 43 230 42 145 104 0.973 8.5606523284014 260.48765044964 909.57574051008
70	244903 2686 44 230 43 145 103 1862.5644985226 2450.6330954138 233557.90808398 533267467.38951
71	247589 2689 44 230 43 145 103 1578.4619682319 2120.9558397355 196336.06968904 377315097.09574
72	250278 2661 45 230 44 145 102 3.9992962979057 13.999656618503 1346.728219481 18146.54345478
73	252939 2860 46 230 45 145 101 -3.8456400924426 2.1980071439291 9.914358655778 80.410618824578
74	255799 2586 46 230 45 145 101 0.973 8.7718288962126 255.1161309188 920.5590995295
75	258385 2621 47 230 46 145 100 1891.5274027087 2450.6169209509 227937.82274954 522740736.95178
76	261006 2616 47 230 46 145 100 1578.4567965213 2120.934805207 190918.83475107 367527391.67242
77	263622 2593 48 230 47 145 99 4.1510441398274 13.997592851426 1305.8214957208 17591.958510551
78	266215 2784 49 230 48 145 98 -4.4635536425416 2.0671690396545 9.8123530919196 87.154489269066
79	268999 2506 49 230 48 145 98 0.973 8.4312780203507 249.25817429629 898.09307354654
80	271505 2539 50 230 49 145 97 1920.8954813289 2450.5254289502 222257.5902615 512002158.54453
81	274044 2541 50 230 49 145 97 1578.4441374587 2120.6608228572 185362.61064913 357242483.32264
82	276585 2517 51 230 50 145 96 3.8447853377257 13.994805302613 1263.0861201222 16996.504667897
83	279102 2682 52 230 51 145 95 -4.5 2.078282451923 10.086317196669 83.690164079527
84	281784 2427 52 230 51 145 95 0.973 8.7472268623497 241.8160844279 859.2647368312
85	284211 2466 53 230 52 145 94 2039.8421127035 2450.3597394241 220155.85574646 517034484.73864
86	286677 2460 53 230 52 145 94 1578.4585047252 2120.5688971151 178422.35180363 342010142.44381
87	289137 2438 54 230 53 145 93 3.8698786158062 13.990378188035 1096.0492064332 13313.494659032
88	291575 2601 55 230 54 145 92 -4.5 2.1310822762968 10.061321496636 65.728706605146
89	294176 2384 55 230 54 145 92 0.973 8.5377272186901 216.24530918181 707.98025238661
90	296560 2393 56 230 55 145 91 2059.9243992097 2450.4524190207 213550.36193173 502386165.19159
91	298953 2391 56 230 55 145 91 1578.4678993914 2120.7316811346 173085.4108033 332461676.23381
92	301344 2369 57 230 56 145 90 4.0700236807532 13.957018211056 1066.0831678698 13007.989971838
93	303713 2520 58 230 57 145 89 -3.293089319321 2.3297191780875 9.8619824162753 64.305567821703
94	306233 2238 58 230 57 145 89 0.973 8.696925829343 213.46800734129 772.54912293126
95	308471 2312 59 230 58 145 88 2077.5083762339 2450.4624753713 206920.36597506 487652387.54728
96	310783 2320 59 230 58 145 88 1578.4570502462 2120.8961891662 167620.96103399 322455624.82804
97	313103 2289 60 230 59 145 87 3.8447639940612 13.990537970087 1041.0544663696 12842.568785475
98	315392 2429 61 230 60 145 86 -2.5445133379498 2.222100084126 10.058343471356 61.96362098778
99	317821 2101 61 230 60 145 86 0.973 8.3204552480567 209.19528418899 790.44116420876
100	319922 2328 62 230 61 145 85 2094.3306748797 2450.3554975685 200221.63513909 472612263.63941
101	322250 2323 62 230 61 145 85 1578.4478435991 2120.5997553328 162104.64314765 312242057.7687
102	324573 2303 63 230 62 145 84 4.018615917157 13.975827144638 1016.7981194203 12704.429430896
103	326876 2432 64 230 63 145 83 -2.198287774594 2.3276957343216 9.9266991758313 71.501813856315
104	329308 2125 64 230 63 145 83 0.973 8.1667304192483 211.55834387324 838.17379535376
105	331433 2248 65 230 64 145 82 2111.6873533663 2450.1610031507 193355.67191458 456788663.57625
106	333681 2251 65 230 64 145 82 1578.4634011481 2120.7689092075 156206.29762389 300662446.76468
107	335932 2222 67 230 65 145 81 4.2842987557744 13.993739581739 991.17401703783 12487.833423862
108	338154 2339 151 230 66 145 80 -2.965684290064 2.279591250075 9.5920022091748 66.105803750977
109	340493 2070 151 230 66 145 80 0.973 8.0062312204286 202.12747186573 752.17327126297
110	342563 2167 152 230 67 145 79 2127.749233084 2450.1550019225 186615.73241745 441584191.08381
111	344730 2174 152 230 67 145 79 1578.4618975855 2120.9453101354 150531.82834764 289830166.14545
112	346904 2144 153 230 68 145 78 4.1832233416825 13.990375978411 967.74479506574 12414.961332134
113	349048 2258 154 230 69 145 77 -2.4922948446457 2.2485749843647 7.362264643859 67.581764697249
114	351306 1971 154 230 69 145 77 0.973 7.8311198804753 193.66577123096 743.43025808048
115	353277 2084 155 230 70 145 76 2194.1522858002 2450.5820902542 181654.58344389 434509828.67019
116	355361 2088 155 230 70 145 76 1578.4517848091 2120.7082483275 142079.2465302 268476108.06836
117	357449 2065 156 230 71 145 75 4.0859593419879 13.9954915611 889.91437816769 10847.622660208
118	359514 2199 157 230 72 145 74 -1.8757059074481 2.0294341745344 9.8833565990711 25.358234838764
119	361713 2020 157 230 72 145 74 0.973 7.429044537753 166.24706111643 471.88071804382
120	363733 2008 158 230 73 145 73 2212.3891220273 2450.1930519535 174771.00091385 418688346.22798
121	365741 2013 158 230 73 145 73 1578.4505975069 2120.8731574817 136466.70378502 257821498.60512
122	367754 1979 159 230 74 145 72 4.0735588402093 13.990983375695 870.40059227736 10811.104696083
123	369733 2092 160 230 75 145 71 -1.3746847264637 2.2564944986859 9.8278741794358 33.616079202317
124	371825 1875 160 230 75 145 71 0.973 8.3392083846763 163.92962099616 561.42350225206
125	373700 1926 161 230 76 145 70 2231.2346424989 2450.61204914 167868.72168338 402786075.74585
126	375626 1926 161 230 76 145 70 1578.4519604994 2120.5746393418 130813.80182986 247026649.72183
127	377552 1900 162 230 77 145 69 4.0635240824116 13.995084378871 851.48787596187 10802.594864002
128	379452 2011 163 230 78 145 68 -1.5678357862427 2.0509393013455 9.8331297679525 37.768468484412
129	381463 1769 163 230 78 145 68 0.973 8.6102118406059 163.57494407282 602.84457623982
130	383232 1850 164 230 79 145 67 2250.2068439454 2450.245049579 160886.45107043 386510650.99274
131	385082 1848 164 230 79 145 67 1578.4618988531 2120.7444728371 125012.6494153 235716071.64435
132	386930 1818 165 230 80 145 66 4.0267229073465 13.995347008838 831.29123196827 10743.433470045
133	388748 1908 166 230 81 145 65 -1.800034765683 2.108396035193 9.8690956703487 37.022238286597
134	390656 1726 166 230 81 145 65 0.973 7.9985913624082 160.1653961132 568.95481898471
135	392382 1766 167 230 82 145 64 2269.32870312 2450.1729110724 153858.21598389 370022207.03713
136	394148 1770 167 230 82 145 64 1578.4479903299 2120.9215816753 119067.59673838 223858590.22567
137	395918 1742 168 230 83 145 63 3.8169569386458 13.998507969014 812.51279316215 10772.361253604
138	397660 1836 169 230 84 145 62 -2.3598040740222 2.1917019801144 10.062240716961 43.134866555546
139	399496 1644 169 230 84 145 62 0.973 7.7541670228011 160.51251321366 584.41680551077
140	401140 1689 170 230 85 145 61 2301.2075883442 2450.3908839365 146924.19841167 353984022.52076
141	402829 1685 170 230 85 145 61 1578.4518036256 2120.6139469184 112879.88141329 211040700.48975
142	404514 1664 171 230 86 145 60 4.0343364698305 13.999620908881 781.17279889627 10451.634819
143	406178 1760 172 230 87 145 59 -3.6888268362507 2.0824805266107 9.9322756685987 49.187820610362
144	407938 1604 172 230 87 145 59 0.973 8.0447510818254 155.73235747671 575.39131138013
145	409542 1600 173 230 88 145 58 2334.5638607559 2450.5693259261 139964.93544074 337838200.79402
146	411142 1608 173 230 88 145 58 1578.4481442608 2120.7721794043 106593.77563372 197846059.34524
147	412750 1575 174 230 89 145 57 4.0013211675714 13.999199340187 742.53807603145 9953.0837655047
148	414325 1665 175 230 90 145 56 -4.4090028646632 2.1844902744796 9.946066741319 52.952049055089
149	415990 1523 175 230 90 145 56 0.973 8.6397759745869 149.74916968406 581.04788678501
150	417513 1526 176 230 91 145 55 2334.3695889099 2450.5909072174 132902.88660552 321213845.02069
151	419039 1525 176 230 91 145 55 1578.4565926548 2120.8488398083 100256.91013286 184446548.34148
152	420564 1499 177 230 92 145 54 4.0929231651139 13.99601826282 700.00254504661 9346.229838717
153	422063 1584 178 230 93 145 53 -4.4791784844679 2.1234678969695 9.8815667077096 54.329931558231
154	423647 1435 178 230 93 145 53 0.973 9.1179268217973 144.34551234099 575.66804047501
155	425082 1444 179 230 94 145 52 2334.3552150509 2450.6484816062 125714.2374909 303987844.24177
156	426526 1443 179 230 94 145 52 1578.4661713783 2116.6929379534 93928.899355301 171085007.25907
157	427969 1414 180 230 95 145 51 4.2052558286512 13.998518423606 659.16873988692 8787.2538696291
158	429383 1495 181 230 96 145 50 -4.4488477394171 2.1511947196047 9.7741475444846 54.092793268086
159	430878 1355 181 230 96 145 50 0.973 8.7639896884138 138.37302202935 560.83677276262
160	432233 1364 182 230 97 145 49 2334.6953258149 2450.3917266983 118239.32420697 285386161.95294
161	433597 1362 182 230 97 145 49 1578.4490826223 2049.7378771538 86662.538933652 154243522.39342
162	434959 1334 183 230 98 145 48 3.9195603011693 13.983073143384 585.9995577847 7402.4885631549
163	436293 1409 184 230 99 145 47 -2.8955604249949 2.1175358718634 9.9839408337902 36.567263244723
164	437702 1289 184 230 99 145 47 0.973 8.4839578196736 121.60263904935 457.4510280857
165	438991 1285 185 230 100 145 46 2334.7776501694 2450.2676099896 111023.05687565 268021412.09879
166	440276 1286 185 230 100 145 46 1578.4549668636 2020.2888816949 80913.898877369 143114634.23274
167	441562 1255 186 230 101 145 45 3.9747482432421 13.991149456091 556.5951251052 7155.5675661194
168	442817 1314 187 230 102 145 44 -1.8599681704293 2.0400745077524 9.9713245684611 37.002125435519
169	444131 1161 187 230 102 145 44 0.973 8.7362375013429 117.89064892775 489.23157200574
170	445292 1196 188 230 103 145 43 2334.0319650015 2450.2577806491 103749.08986861 250380861.48846
171	446488 1195 188 230 103 145 43 1578.4700050903 1989.0634234454 75151.861204662 131971755.54557
172	447683 1174 189 230 104 145 42 4.2292426157767 13.998561192479 525.54787941296 6841.1112197863
173	448857 1223 190 230 105 145 41 -2.3199954668997 2.2262654979038 9.7358368052308 44.856593983089
174	450080 1094 190 230 105 145 41 0.973 7.6878605237884 117.7621824622 507.67690742679
175	451174 1117 191 230 106 145 40 2334.7695703001 2450.2801452257 96420.471462573 232477397.87936
176	452291 1112 191 230 106 145 40 1578.454787395 1950.994358765 69256.314430928 120390711.69976
177	453403 1089 192 230 107 145 39 3.828069966125 13.995784487957 486.64070314338 6337.8957129689
178	454492 1131 193 230 108 145 38 -3.3327581210373 2.0073283973546 10.043800789647 45.270634734421
179	455623 1020 193 230 108 145 38 0.973 7.917155437987 112.12497953489 474.65350027136
180	456643 1031 194 230 109 145 37 2334.6344563016 2449.5654569535 89080.454300645 214518451.30107
181	457674 1034 194 230 109 145 37 1578.4516972676 1913.3878747215 63514.705430978 109383302.7368
182	458708 1002 195 230 110 145 36 3.9549282409494 13.999050881448 449.53273167497 5859.8030403178
183	459710 1040 196 230 111 145 35 -4.4691865845785 2.1450316884601 10.019890307913 52.356319057245
184	460750 956 196 230 111 145 35 0.973 8.977512736819 107.32901063532 481.77404146553
185	461706 950 197 230 112 145 34 2333.9493048734 2444.9429699546 81599.932343521 195884897.46635
186	462656 950 197 230 112 145 34 1578.451437911 1849.8195631532 57505.498462577 97460080.028975
187	463606 921 198 230 113 145 33 4.0468560271259 13.997230974345 384.86897515411 4681.8567824333
188	464527 939 199 230 114 145 32 -3.08 2.0959686288238 9.8883013052782 45.10765593291
189	465466 875 199 230 114 145 32 0.973 8.1136061922364 95.707549462829 419.69003625597
190	466341 866 200 230 115 145 31 2334.9436089419 2442.6327353421 74333.430928365 178279458.27952
191	467207 865 200 230 115 145 31 1578.4623623062 1818.0492815543 52125.312459698 87788848.691233
192	468072 838 201 230 116 145 30 4.2921992871535 13.999734012587 353.16544878116 4354.3867189122
193	468910 856 202 230 117 145 29 -3.4962148275985 2.0968393029622 9.6535529894478 49.792061916827
194	469766 789 202 230 117 145 29 0.973 8.1912732447517 92.940543046152 425.08715282879
195	470555 783 203 230 118 145 28 2334.6668089847 2438.4177978868 66890.996207938 159831348.84256
196	471338 781 203 230 118 145 28 1578.463362135 1757.8902895702 46536.645411554 77422949.615218
197	472119 752 204 230 119 145 27 4.099163855175 13.933389595561 293.13273676214 3316.3360047491
198	472871 760 205 230 120 145 26 -2.9252093394197 2.0846138097718 9.8342257403857 35.774457802271
199	473631 705 205 230 120 145 26 0.973 8.4212677898141 78.806740554107 366.24316368655
200	474336 696 206 230 121 145 25 2333.9824690933 2433.8132317876 59634.335349366 142274608.5764
201	475032 696 206 230 121 145 25 1578.45727483 1724.9156735856 41348.636811432 68446223.138304
202	475728 669 207 230 122 145 24 3.9084870939956 12.974772715911 259.42503043854 2941.0546576245
203	476397 675 208 230 123 145 23 -3.759724677813 2.3720240620477 9.0662856219156 45.848733430073
204	477072 614 208 230 123 145 23 0.973 7.9863623358215 73.896471277965 356.18527154902
205	477686 616 209 230 124 145 22 2334.5169715756 2430.2828928635 52426.565464783 124952226.54287
206	478302 615 209 230 124 145 22 1578.4581599468 1703.0076324241 36270.188371571 59844792.977096
207	478917 585 210 230 125 145 21 4.076561782019 13.976141884367 234.8757772363 2822.0268611478
208	479502 586 211 230 126 145 20 -3.1049815161731 2.2906016429001 4.923122356321 43.508248228724
209	480088 528 211 230 126 145 20 0.973 8.2851992498627 62.852819814461 296.85714615338
210	480616 531 212 230 127 145 19 2333.9088620376 2414.8836791968 45106.916817479 107098716.57945
211	481147 531 212 230 127 145 19 1578.4481271179 1698.5508528082 31128.423465093 51034902.392591
212	481678 503 213 230 128 145 18 3.9824005470828 12.612673348718 203.24075547708 2408.970852754
213	482181 509 214 230 129 145 17 -0.071056252236014 2.145434306066 8.5617124878315 16.444236921738
214	482690 476 214 230 129 145 17 1.6824736096304 7.2562844975478 50.208667579022 204.2520935278
215	483166 443 215 230 130 145 16 2333.8669623059 2414.8720430041 37962.133213776 90082257.504967
216	483609 448 215 230 130 145 16 1578.4523998667 1693.0974142412 26021.286769601 42342831.364695
217	484057 417 216 230 131 145 15 3.8414571175372 12.846164658443 165.26837419953 1949.5408331674
218	484474 413 217 230 132 145 14 -0.049538951006252 1.9174910463369 8.9374801519198 16.303151732973
219	484887 389 217 230 132 145 14 1.7656630139957 6.9764723776048 45.383451812538 200.75086384652
220	485276 364 218 230 133 145 13 2333.9988551341 2414.8835599658 30905.357305623 73482250.588403
221	485640 363 218 230 133 145 13 1578.4481708985 1664.4462189348 20970.709450899 33839034.745151
222	486003 336 219 230 134 145 12 4.0076643208797 12.188331644776 124.8413852451 1388.3997101793
223	486339 323 220 230 135 145 11 -0.055130667027552 2.1373789616558 8.1653670905158 15.88814062615
224	486662 307 220 230 135 145 11 1.6991036221722 7.7535917575433 37.345055437694 173.50203300976
225	486969 280 221 230 136 145 10 2348.4504978438 2414.8606275192 23869.967707195 56982362.581507
226	487249 279 221 230 136 145 10 1578.4565915735 1641.020039686 16027.184376338 25691638.531178
227	487528 252 222 230 137 145 9 4.2020141742253 13.893452649817 96.879683694321 1152.8285649508
228	487780 232 223 230 138 145 8 0.0037353797350068 2.1547421413963 9.691438475592 18.829115194821
229	488012 222 223 230 138 145 8 2.0404714691404 7.8458806320652 38.085822490933 222.93594233809
230	488234 196 224 230 139 145 7 2380.2984044222 2414.8833766948 16801.487624873 40328099.724662
231	488430 195 224 230 139 145 7 1578.4482381949 1608.7624978619 11127.698132729 17690178.857223
232	488625 168 225 230 140 145 6 3.9728593152307 11.738617610756 50.979507168466 482.89987267568
233	488793 141 226 230 141 145 5 0.020270885876625 1.988412756992 7.7657582955251 15.007474290741
234	488934 140 226 230 141 145 5 1.8830424898429 7.4113795116961 24.776056211197 140.04922560986
235	489074 112 227 230 142 145 4 2402.6311191204 2414.8344336114 9636.859789337 23217352.154033
236	489186 112 227 230 142 145 4 1578.4662098391 1586.1425345475 6325.3989484636 10002702.580239
237	489298 84 228 230 143 145 3 3.8298766437329 7.8167959182237 17.407621017522 108.95878064105
238	489382 55 229 230 144 145 2 1.931071811833 2.0558474626578 3.9869192744908 7.9555471321725
239	489437 56 229 230 144 145 2 4.0866488010554 5.4041083766265 9.4907571776818 45.905085769492
240	489493 28 230 230 145 145 1 2414.8609813555 2414.8609813555 2414.8609813555 5831553.5592734
241	489521 28 230 230 145 145 1 1578.4564616466 1578.4564616466 1578.4564616466 2491524.8013139

