version 2
run Default-0-20230823-08:24:58-3941
attr configname Default
attr datetime 20230823-08:24:58
attr experiment Default
attr inifile omnetpp.ini
attr iterationvars ""
attr iterationvarsf ""
attr measurement ""
attr network RSUExampleScenario
attr processid 3941
attr repetition 0
attr replication #0
attr resultdir results
attr runnumber 0
attr seedset 0
param *.playgroundSizeX 2500m
param *.playgroundSizeY 2500m
param *.playgroundSizeZ 50m
param *.annotations.draw true
param *.obstacles.obstacles "xmldoc(\"config.xml\", \"//AnalogueModel[@type='SimpleObstacleShadowing']/obstacles\")"
param *.manager.updateInterval 1s
param *.manager.host "\"localhost\""
param *.manager.port 9999
param *.manager.autoShutdown true
param *.manager.launchConfig "xmldoc(\"erlangen.launchd.xml\")"
param *.rsu[0].mobility.x 2000
param *.rsu[0].mobility.y 2000
param *.rsu[0].mobility.z 3
param *.rsu[*].applType "\"TraCIDemoRSU11p\""
param *.rsu[*].appl.headerLength "80 bit"
param *.rsu[*].appl.sendBeacons false
param *.rsu[*].appl.dataOnSch false
param *.rsu[*].appl.beaconInterval 1s
param *.rsu[*].appl.beaconUserPriority 7
param *.rsu[*].appl.dataUserPriority 5
param *.rsu[*].nic.phy80211p.antennaOffsetZ "0 m"
param *.connectionManager.sendDirect true
param *.connectionManager.maxInterfDist 2600m
param *.connectionManager.drawMaxIntfDist false
param *.**.nic.mac1609_4.useServiceChannel false
param *.**.nic.mac1609_4.txPower 20mW
param *.**.nic.mac1609_4.bitrate 6Mbps
param *.**.nic.phy80211p.minPowerLevel -110dBm
param *.**.nic.phy80211p.useNoiseFloor true
param *.**.nic.phy80211p.noiseFloor -98dBm
param *.**.nic.phy80211p.decider "xmldoc(\"config.xml\")"
param *.**.nic.phy80211p.analogueModels "xmldoc(\"config.xml\")"
param *.**.nic.phy80211p.usePropagationDelay true
param *.**.nic.phy80211p.antenna "xmldoc(\"antenna.xml\", \"/root/Antenna[@id='monopole']\")"
param *.node[*].nic.phy80211p.antennaOffsetY "0 m"
param *.node[*].nic.phy80211p.antennaOffsetZ "1.895 m"
param *.node[*].applType "\"TraCIDemo11p\""
param *.node[*].appl.headerLength "80 bit"
param *.node[*].appl.sendBeacons false
param *.node[*].appl.dataOnSch false
param *.node[*].appl.beaconInterval 1s
param *.node[*].veinsmobility.x 0
param *.node[*].veinsmobility.y 0
param *.node[*].veinsmobility.z 0
param *.node[*].veinsmobility.setHostSpeed false

vector 0 RSUExampleScenario.node[0].veinsmobility posx ETV
vector 1 RSUExampleScenario.node[0].veinsmobility posy ETV
vector 2 RSUExampleScenario.node[0].veinsmobility speed ETV
vector 3 RSUExampleScenario.node[0].veinsmobility acceleration ETV
vector 4 RSUExampleScenario.node[0].veinsmobility co2emission ETV
vector 5 RSUExampleScenario.node[1].veinsmobility posx ETV
vector 6 RSUExampleScenario.node[1].veinsmobility posy ETV
vector 7 RSUExampleScenario.node[1].veinsmobility speed ETV
vector 8 RSUExampleScenario.node[1].veinsmobility acceleration ETV
vector 9 RSUExampleScenario.node[1].veinsmobility co2emission ETV
vector 10 RSUExampleScenario.node[2].veinsmobility posx ETV
vector 11 RSUExampleScenario.node[2].veinsmobility posy ETV
vector 12 RSUExampleScenario.node[2].veinsmobility speed ETV
vector 13 RSUExampleScenario.node[2].veinsmobility acceleration ETV
vector 14 RSUExampleScenario.node[2].veinsmobility co2emission ETV
vector 15 RSUExampleScenario.node[3].veinsmobility posx ETV
vector 16 RSUExampleScenario.node[3].veinsmobility posy ETV
vector 17 RSUExampleScenario.node[3].veinsmobility speed ETV
vector 18 RSUExampleScenario.node[3].veinsmobility acceleration ETV
vector 19 RSUExampleScenario.node[3].veinsmobility co2emission ETV
vector 20 RSUExampleScenario.node[4].veinsmobility posx ETV
vector 21 RSUExampleScenario.node[4].veinsmobility posy ETV
vector 22 RSUExampleScenario.node[4].veinsmobility speed ETV
vector 23 RSUExampleScenario.node[4].veinsmobility acceleration ETV
vector 24 RSUExampleScenario.node[4].veinsmobility co2emission ETV
vector 25 RSUExampleScenario.node[5].veinsmobility posx ETV
vector 26 RSUExampleScenario.node[5].veinsmobility posy ETV
vector 27 RSUExampleScenario.node[5].veinsmobility speed ETV
vector 28 RSUExampleScenario.node[5].veinsmobility acceleration ETV
vector 29 RSUExampleScenario.node[5].veinsmobility co2emission ETV
vector 30 RSUExampleScenario.node[6].veinsmobility posx ETV
vector 31 RSUExampleScenario.node[6].veinsmobility posy ETV
vector 32 RSUExampleScenario.node[6].veinsmobility speed ETV
vector 33 RSUExampleScenario.node[6].veinsmobility acceleration ETV
vector 34 RSUExampleScenario.node[6].veinsmobility co2emission ETV
vector 35 RSUExampleScenario.node[7].veinsmobility posx ETV
vector 36 RSUExampleScenario.node[7].veinsmobility posy ETV
vector 37 RSUExampleScenario.node[7].veinsmobility speed ETV
vector 38 RSUExampleScenario.node[7].veinsmobility acceleration ETV
vector 39 RSUExampleScenario.node[7].veinsmobility co2emission ETV
vector 40 RSUExampleScenario.node[8].veinsmobility posx ETV
vector 41 RSUExampleScenario.node[8].veinsmobility posy ETV
vector 42 RSUExampleScenario.node[8].veinsmobility speed ETV
vector 43 RSUExampleScenario.node[8].veinsmobility acceleration ETV
vector 44 RSUExampleScenario.node[8].veinsmobility co2emission ETV
vector 45 RSUExampleScenario.node[9].veinsmobility posx ETV
vector 46 RSUExampleScenario.node[9].veinsmobility posy ETV
vector 47 RSUExampleScenario.node[9].veinsmobility speed ETV
vector 48 RSUExampleScenario.node[9].veinsmobility acceleration ETV
vector 49 RSUExampleScenario.node[9].veinsmobility co2emission ETV
vector 50 RSUExampleScenario.node[10].veinsmobility posx ETV
vector 51 RSUExampleScenario.node[10].veinsmobility posy ETV
vector 52 RSUExampleScenario.node[10].veinsmobility speed ETV
vector 53 RSUExampleScenario.node[10].veinsmobility acceleration ETV
vector 54 RSUExampleScenario.node[10].veinsmobility co2emission ETV
vector 55 RSUExampleScenario.node[11].veinsmobility posx ETV
vector 56 RSUExampleScenario.node[11].veinsmobility posy ETV
vector 57 RSUExampleScenario.node[11].veinsmobility speed ETV
vector 58 RSUExampleScenario.node[11].veinsmobility acceleration ETV
vector 59 RSUExampleScenario.node[11].veinsmobility co2emission ETV
vector 60 RSUExampleScenario.node[12].veinsmobility posx ETV
vector 61 RSUExampleScenario.node[12].veinsmobility posy ETV
vector 62 RSUExampleScenario.node[12].veinsmobility speed ETV
vector 63 RSUExampleScenario.node[12].veinsmobility acceleration ETV
vector 64 RSUExampleScenario.node[12].veinsmobility co2emission ETV
vector 65 RSUExampleScenario.node[13].veinsmobility posx ETV
vector 66 RSUExampleScenario.node[13].veinsmobility posy ETV
vector 67 RSUExampleScenario.node[13].veinsmobility speed ETV
vector 68 RSUExampleScenario.node[13].veinsmobility acceleration ETV
vector 69 RSUExampleScenario.node[13].veinsmobility co2emission ETV
vector 70 RSUExampleScenario.node[14].veinsmobility posx ETV
vector 71 RSUExampleScenario.node[14].veinsmobility posy ETV
vector 72 RSUExampleScenario.node[14].veinsmobility speed ETV
vector 73 RSUExampleScenario.node[14].veinsmobility acceleration ETV
vector 74 RSUExampleScenario.node[14].veinsmobility co2emission ETV
vector 75 RSUExampleScenario.node[15].veinsmobility posx ETV
vector 76 RSUExampleScenario.node[15].veinsmobility posy ETV
vector 77 RSUExampleScenario.node[15].veinsmobility speed ETV
vector 78 RSUExampleScenario.node[15].veinsmobility acceleration ETV
vector 79 RSUExampleScenario.node[15].veinsmobility co2emission ETV
vector 80 RSUExampleScenario.node[16].veinsmobility posx ETV
vector 81 RSUExampleScenario.node[16].veinsmobility posy ETV
vector 82 RSUExampleScenario.node[16].veinsmobility speed ETV
vector 83 RSUExampleScenario.node[16].veinsmobility acceleration ETV
vector 84 RSUExampleScenario.node[16].veinsmobility co2emission ETV
vector 85 RSUExampleScenario.node[17].veinsmobility posx ETV
vector 86 RSUExampleScenario.node[17].veinsmobility posy ETV
vector 87 RSUExampleScenario.node[17].veinsmobility speed ETV
vector 88 RSUExampleScenario.node[17].veinsmobility acceleration ETV
vector 89 RSUExampleScenario.node[17].veinsmobility co2emission ETV
vector 90 RSUExampleScenario.node[18].veinsmobility posx ETV
vector 91 RSUExampleScenario.node[18].veinsmobility posy ETV
vector 92 RSUExampleScenario.node[18].veinsmobility speed ETV
vector 93 RSUExampleScenario.node[18].veinsmobility acceleration ETV
vector 94 RSUExampleScenario.node[18].veinsmobility co2emission ETV
vector 95 RSUExampleScenario.node[19].veinsmobility posx ETV
vector 96 RSUExampleScenario.node[19].veinsmobility posy ETV
vector 97 RSUExampleScenario.node[19].veinsmobility speed ETV
vector 98 RSUExampleScenario.node[19].veinsmobility acceleration ETV
vector 99 RSUExampleScenario.node[19].veinsmobility co2emission ETV
vector 100 RSUExampleScenario.node[20].veinsmobility posx ETV
vector 101 RSUExampleScenario.node[20].veinsmobility posy ETV
vector 102 RSUExampleScenario.node[20].veinsmobility speed ETV
vector 103 RSUExampleScenario.node[20].veinsmobility acceleration ETV
vector 104 RSUExampleScenario.node[20].veinsmobility co2emission ETV
vector 105 RSUExampleScenario.node[21].veinsmobility posx ETV
vector 106 RSUExampleScenario.node[21].veinsmobility posy ETV
vector 107 RSUExampleScenario.node[21].veinsmobility speed ETV
vector 108 RSUExampleScenario.node[21].veinsmobility acceleration ETV
vector 109 RSUExampleScenario.node[21].veinsmobility co2emission ETV
vector 110 RSUExampleScenario.node[22].veinsmobility posx ETV
vector 111 RSUExampleScenario.node[22].veinsmobility posy ETV
vector 112 RSUExampleScenario.node[22].veinsmobility speed ETV
vector 113 RSUExampleScenario.node[22].veinsmobility acceleration ETV
vector 114 RSUExampleScenario.node[22].veinsmobility co2emission ETV
vector 115 RSUExampleScenario.node[23].veinsmobility posx ETV
vector 116 RSUExampleScenario.node[23].veinsmobility posy ETV
vector 117 RSUExampleScenario.node[23].veinsmobility speed ETV
vector 118 RSUExampleScenario.node[23].veinsmobility acceleration ETV
vector 119 RSUExampleScenario.node[23].veinsmobility co2emission ETV
vector 120 RSUExampleScenario.node[24].veinsmobility posx ETV
vector 121 RSUExampleScenario.node[24].veinsmobility posy ETV
vector 122 RSUExampleScenario.node[24].veinsmobility speed ETV
vector 123 RSUExampleScenario.node[24].veinsmobility acceleration ETV
vector 124 RSUExampleScenario.node[24].veinsmobility co2emission ETV
vector 125 RSUExampleScenario.node[25].veinsmobility posx ETV
vector 126 RSUExampleScenario.node[25].veinsmobility posy ETV
vector 127 RSUExampleScenario.node[25].veinsmobility speed ETV
vector 128 RSUExampleScenario.node[25].veinsmobility acceleration ETV
vector 129 RSUExampleScenario.node[25].veinsmobility co2emission ETV
vector 130 RSUExampleScenario.node[26].veinsmobility posx ETV
vector 131 RSUExampleScenario.node[26].veinsmobility posy ETV
vector 132 RSUExampleScenario.node[26].veinsmobility speed ETV
vector 133 RSUExampleScenario.node[26].veinsmobility acceleration ETV
vector 134 RSUExampleScenario.node[26].veinsmobility co2emission ETV
vector 135 RSUExampleScenario.node[27].veinsmobility posx ETV
vector 136 RSUExampleScenario.node[27].veinsmobility posy ETV
vector 137 RSUExampleScenario.node[27].veinsmobility speed ETV
vector 138 RSUExampleScenario.node[27].veinsmobility acceleration ETV
vector 139 RSUExampleScenario.node[27].veinsmobility co2emission ETV
vector 140 RSUExampleScenario.node[28].veinsmobility posx ETV
vector 141 RSUExampleScenario.node[28].veinsmobility posy ETV
vector 142 RSUExampleScenario.node[28].veinsmobility speed ETV
vector 143 RSUExampleScenario.node[28].veinsmobility acceleration ETV
vector 144 RSUExampleScenario.node[28].veinsmobility co2emission ETV
vector 145 RSUExampleScenario.node[29].veinsmobility posx ETV
vector 146 RSUExampleScenario.node[29].veinsmobility posy ETV
vector 147 RSUExampleScenario.node[29].veinsmobility speed ETV
vector 148 RSUExampleScenario.node[29].veinsmobility acceleration ETV
vector 149 RSUExampleScenario.node[29].veinsmobility co2emission ETV
vector 150 RSUExampleScenario.node[30].veinsmobility posx ETV
vector 151 RSUExampleScenario.node[30].veinsmobility posy ETV
vector 152 RSUExampleScenario.node[30].veinsmobility speed ETV
vector 153 RSUExampleScenario.node[30].veinsmobility acceleration ETV
vector 154 RSUExampleScenario.node[30].veinsmobility co2emission ETV
vector 155 RSUExampleScenario.node[31].veinsmobility posx ETV
vector 156 RSUExampleScenario.node[31].veinsmobility posy ETV
vector 157 RSUExampleScenario.node[31].veinsmobility speed ETV
vector 158 RSUExampleScenario.node[31].veinsmobility acceleration ETV
vector 159 RSUExampleScenario.node[31].veinsmobility co2emission ETV
vector 160 RSUExampleScenario.node[32].veinsmobility posx ETV
vector 161 RSUExampleScenario.node[32].veinsmobility posy ETV
vector 162 RSUExampleScenario.node[32].veinsmobility speed ETV
vector 163 RSUExampleScenario.node[32].veinsmobility acceleration ETV
vector 164 RSUExampleScenario.node[32].veinsmobility co2emission ETV
vector 165 RSUExampleScenario.node[33].veinsmobility posx ETV
vector 166 RSUExampleScenario.node[33].veinsmobility posy ETV
vector 167 RSUExampleScenario.node[33].veinsmobility speed ETV
vector 168 RSUExampleScenario.node[33].veinsmobility acceleration ETV
vector 169 RSUExampleScenario.node[33].veinsmobility co2emission ETV
vector 170 RSUExampleScenario.node[34].veinsmobility posx ETV
vector 171 RSUExampleScenario.node[34].veinsmobility posy ETV
vector 172 RSUExampleScenario.node[34].veinsmobility speed ETV
vector 173 RSUExampleScenario.node[34].veinsmobility acceleration ETV
vector 174 RSUExampleScenario.node[34].veinsmobility co2emission ETV
vector 175 RSUExampleScenario.node[35].veinsmobility posx ETV
vector 176 RSUExampleScenario.node[35].veinsmobility posy ETV
vector 177 RSUExampleScenario.node[35].veinsmobility speed ETV
vector 178 RSUExampleScenario.node[35].veinsmobility acceleration ETV
vector 179 RSUExampleScenario.node[35].veinsmobility co2emission ETV
vector 180 RSUExampleScenario.node[36].veinsmobility posx ETV
vector 181 RSUExampleScenario.node[36].veinsmobility posy ETV
vector 182 RSUExampleScenario.node[36].veinsmobility speed ETV
vector 183 RSUExampleScenario.node[36].veinsmobility acceleration ETV
vector 184 RSUExampleScenario.node[36].veinsmobility co2emission ETV
vector 185 RSUExampleScenario.node[37].veinsmobility posx ETV
vector 186 RSUExampleScenario.node[37].veinsmobility posy ETV
vector 187 RSUExampleScenario.node[37].veinsmobility speed ETV
vector 188 RSUExampleScenario.node[37].veinsmobility acceleration ETV
vector 189 RSUExampleScenario.node[37].veinsmobility co2emission ETV
vector 190 RSUExampleScenario.node[38].veinsmobility posx ETV
vector 191 RSUExampleScenario.node[38].veinsmobility posy ETV
vector 192 RSUExampleScenario.node[38].veinsmobility speed ETV
vector 193 RSUExampleScenario.node[38].veinsmobility acceleration ETV
vector 194 RSUExampleScenario.node[38].veinsmobility co2emission ETV
vector 195 RSUExampleScenario.node[39].veinsmobility posx ETV
vector 196 RSUExampleScenario.node[39].veinsmobility posy ETV
vector 197 RSUExampleScenario.node[39].veinsmobility speed ETV
vector 198 RSUExampleScenario.node[39].veinsmobility acceleration ETV
vector 199 RSUExampleScenario.node[39].veinsmobility co2emission ETV
vector 200 RSUExampleScenario.node[40].veinsmobility posx ETV
vector 201 RSUExampleScenario.node[40].veinsmobility posy ETV
vector 202 RSUExampleScenario.node[40].veinsmobility speed ETV
vector 203 RSUExampleScenario.node[40].veinsmobility acceleration ETV
vector 204 RSUExampleScenario.node[40].veinsmobility co2emission ETV
vector 205 RSUExampleScenario.node[41].veinsmobility posx ETV
vector 206 RSUExampleScenario.node[41].veinsmobility posy ETV
vector 207 RSUExampleScenario.node[41].veinsmobility speed ETV
vector 208 RSUExampleScenario.node[41].veinsmobility acceleration ETV
vector 209 RSUExampleScenario.node[41].veinsmobility co2emission ETV
vector 210 RSUExampleScenario.node[42].veinsmobility posx ETV
vector 211 RSUExampleScenario.node[42].veinsmobility posy ETV
vector 212 RSUExampleScenario.node[42].veinsmobility speed ETV
vector 213 RSUExampleScenario.node[42].veinsmobility acceleration ETV
vector 214 RSUExampleScenario.node[42].veinsmobility co2emission ETV
vector 215 RSUExampleScenario.node[43].veinsmobility posx ETV
vector 216 RSUExampleScenario.node[43].veinsmobility posy ETV
vector 217 RSUExampleScenario.node[43].veinsmobility speed ETV
vector 218 RSUExampleScenario.node[43].veinsmobility acceleration ETV
vector 219 RSUExampleScenario.node[43].veinsmobility co2emission ETV
vector 220 RSUExampleScenario.node[44].veinsmobility posx ETV
vector 221 RSUExampleScenario.node[44].veinsmobility posy ETV
vector 222 RSUExampleScenario.node[44].veinsmobility speed ETV
vector 223 RSUExampleScenario.node[44].veinsmobility acceleration ETV
vector 224 RSUExampleScenario.node[44].veinsmobility co2emission ETV
vector 225 RSUExampleScenario.node[45].veinsmobility posx ETV
vector 226 RSUExampleScenario.node[45].veinsmobility posy ETV
vector 227 RSUExampleScenario.node[45].veinsmobility speed ETV
vector 228 RSUExampleScenario.node[45].veinsmobility acceleration ETV
vector 229 RSUExampleScenario.node[45].veinsmobility co2emission ETV
vector 230 RSUExampleScenario.node[46].veinsmobility posx ETV
vector 231 RSUExampleScenario.node[46].veinsmobility posy ETV
vector 232 RSUExampleScenario.node[46].veinsmobility speed ETV
vector 233 RSUExampleScenario.node[46].veinsmobility acceleration ETV
vector 234 RSUExampleScenario.node[46].veinsmobility co2emission ETV
vector 235 RSUExampleScenario.node[47].veinsmobility posx ETV
vector 236 RSUExampleScenario.node[47].veinsmobility posy ETV
vector 237 RSUExampleScenario.node[47].veinsmobility speed ETV
vector 238 RSUExampleScenario.node[47].veinsmobility acceleration ETV
vector 239 RSUExampleScenario.node[47].veinsmobility co2emission ETV
vector 240 RSUExampleScenario.node[48].veinsmobility posx ETV
vector 241 RSUExampleScenario.node[48].veinsmobility posy ETV
0	2	1	2414.8476884116
0	3	2	2411.8243290941
0	4	3	2407.1592244543
0	5	4	2402.288200066
0	6	5	2396.1394374635
0	7	6	2388.6993875942
0	8	7	2379.889221533
0	9	8	2370.1207192459
0	10	9	2360.3141803208
0	11	10	2350.5099475634
0	12	11	2341.0010868867
0	13	12	2334.5620136983
0	14	13	2337.6803779466
0	15	14	2348.3497968862
0	16	15	2358.6961674725
0	17	16	2371.6616533546
0	18	17	2385.4706804305
0	19	18	2399.3588350668
0	20	19	2412.4541998667
0	21	20	2421.4418196582
0	22	21	2428.417609864
0	23	22	2431.468930052
0	24	23	2433.1513403206
0	25	24	2435.1237040944
0	26	25	2437.2173147583
0	27	26	2438.6437980286
0	28	27	2439.5074353185
0	29	28	2440.517813261
0	30	29	2441.5286354903
0	31	30	2442.5392864447
0	32	31	2443.5505626462
0	33	32	2444.5611125134
0	34	33	2445.5724211388
0	35	34	2446.5834693939
0	36	35	2447.5934051003
0	37	36	2448.6036931522
0	38	37	2449.6148620235
0	39	38	2450.6248001783
0	40	39	2449.5880553933
0	41	40	2448.4757357414
0	42	41	2447.3635385588
0	43	42	2446.250303259
0	44	43	2445.1365203297
0	45	44	2444.0235521834
0	46	45	2442.9111769209
0	47	46	2441.7982721732
0	48	47	2440.6856421625
0	49	48	2439.7151308154
0	50	49	2438.7725309408
0	51	50	2437.9056889905
0	52	51	2432.8785054281
0	53	52	2422.5273191113
0	54	53	2409.439604845
0	55	54	2395.517893619
0	56	55	2381.592286239
0	57	56	2367.6659531716
0	58	57	2353.7601239877
0	59	58	2339.8337569573
0	60	59	2325.9069679289
0	61	60	2311.9542202253
0	62	61	2298.0325140053
0	63	62	2284.0857072632
0	64	63	2270.1754193477
0	65	64	2256.2378749268
0	67	65	2242.3725172955
0	151	66	2228.5568932705
0	152	67	2214.8035730832
0	153	68	2201.6130456962
0	154	69	2188.4247624045
0	155	70	2175.5107078577
0	156	71	2163.5018647154
0	157	72	2152.2359160049
0	158	73	2144.5614629743
0	159	74	2138.2558950796
0	160	75	2131.5955681979
0	161	76	2123.7056670481
0	162	77	2114.4870687368
0	163	78	2104.967243704
0	164	79	2095.4384303803
0	165	80	2085.9056783495
0	166	81	2076.3779145891
0	167	82	2066.8424239405
0	168	83	2057.3019868316
0	169	84	2047.7591241145
0	170	85	2037.7608240946
0	171	86	2027.7716043318
0	172	87	2017.7788433422
0	173	88	2007.7911366803
0	174	89	1997.8010467655
0	175	90	1987.8117551972
0	176	91	1977.8105066026
0	177	92	1967.8078011014
0	178	93	1957.8261436883
0	179	94	1947.8354978411
0	180	95	1937.8357170075
0	181	96	1928.0943876163
0	182	97	1918.3458898404
0	183	98	1908.595691517
0	184	99	1898.860628812
0	185	100	1889.1253430418
0	186	101	1879.3899734151
0	187	102	1869.6541828585
0	188	103	1859.9138401168
0	189	104	1850.1927032812
0	190	105	1840.4627611398
0	191	106	1830.4943832025
0	192	107	1820.3899234756
0	193	108	1810.2821070175
0	194	109	1800.3072354572
0	195	110	1790.3538284535
0	196	111	1780.4116429748
0	197	112	1770.4645217122
0	198	113	1760.5038479915
0	199	114	1750.5548786415
0	200	115	1740.6057387365
0	201	116	1730.6509342341
0	202	117	1720.6987788925
0	203	118	1710.7568396883
0	204	119	1700.8018530838
0	205	120	1690.8717264237
0	206	121	1680.914710167
0	207	122	1670.9539610179
0	208	123	1661.0044728565
0	209	124	1651.0459197217
0	210	125	1641.088878441
0	211	126	1631.133906532
0	212	127	1621.1944049059
0	213	128	1611.4016974772
0	214	129	1601.5908368229
0	215	130	1591.7687360296
0	216	131	1581.95744078
0	217	132	1572.1402246708
0	218	133	1562.3194472806
0	219	134	1551.9221256066
0	220	135	1541.3717610573
0	221	136	1530.8192726985
0	222	137	1520.27387104
0	223	138	1509.7225789776
0	224	139	1498.7459730455
0	225	140	1487.3369203644
0	226	141	1475.9317611735
0	227	142	1464.5321091436
0	228	143	1453.1313696638
0	229	144	1440.9810547153
0	230	145	1428.37280161
1	2	1	1578.4613427464
1	3	2	1579.5715045081
1	4	3	1581.5561876604
1	5	4	1586.4898643075
1	6	5	1592.7177137369
1	7	6	1600.2534592729
1	8	7	1609.1769437566
1	9	8	1619.0710908128
1	10	9	1629.0037637418
1	11	10	1638.9341008412
1	12	11	1649.1129276818
1	13	12	1661.0453354148
1	14	13	1673.5713017788
1	15	14	1682.4825292248
1	16	15	1691.8131453674
1	17	16	1695.5671389326
1	18	17	1697.3762977775
1	19	18	1698.7149431584
1	20	19	1699.9531973498
1	21	20	1700.8030368192
1	22	21	1701.4822415169
1	23	22	1709.488976148
1	24	23	1720.5600911779
1	25	24	1733.5392477075
1	26	25	1747.3162704222
1	27	26	1761.1584832035
1	28	27	1775.0702432813
1	29	28	1788.9649324082
1	30	29	1802.8657313576
1	31	30	1816.7641749373
1	32	31	1830.6712168986
1	33	32	1844.5682703312
1	34	33	1858.4757581847
1	35	34	1872.3796654344
1	36	35	1886.2682729438
1	37	36	1900.1617258992
1	38	37	1914.0672918586
1	39	38	1927.95593304
1	40	39	1941.8192613758
1	41	40	1955.7024557721
1	42	41	1969.5841215905
1	43	42	1983.4787444612
1	44	43	1997.3802024601
1	45	44	2011.2714909082
1	46	45	2025.1553793969
1	47	46	2039.0458765477
1	48	47	2052.9329446238
1	49	48	2066.8462265795
1	50	49	2080.7728807703
1	51	50	2094.6498483503
1	52	51	2107.3969092406
1	53	52	2116.410831539
1	54	53	2120.9360540062
1	55	54	2120.5048353085
1	56	55	2120.0344859883
1	57	56	2119.5641121576
1	58	57	2119.0944308629
1	59	58	2118.6240558857
1	60	59	2118.1536666537
1	61	60	2117.6824006466
1	62	61	2117.2121830918
1	63	62	2116.7411177447
1	64	63	2116.2712858524
1	65	64	2115.8005333487
1	67	65	2114.7955725584
1	151	66	2112.8364102887
1	152	67	2110.6440530941
1	153	68	2106.1704403665
1	154	69	2101.6975887315
1	155	70	2096.6391956527
1	156	71	2089.5697793076
1	157	72	2082.9376931852
1	158	73	2078.419863862
1	159	74	2074.2936624894
1	160	75	2067.3736373968
1	161	76	2058.9511591028
1	162	77	2049.1102951029
1	163	78	2038.9478712408
1	164	79	2028.7758523691
1	165	80	2018.5996289225
1	166	81	2008.4287304608
1	167	82	1998.2495835368
1	168	83	1988.0651562605
1	169	84	1977.9077978879
1	170	85	1968.1884612162
1	171	86	1958.4779514531
1	172	87	1948.7639992675
1	173	88	1939.0549603878
1	174	89	1929.3436047509
1	175	90	1919.6330251861
1	176	91	1909.910822208
1	177	92	1900.1872029733
1	178	93	1890.4840445621
1	179	94	1880.7721485039
1	180	95	1871.0513723353
1	181	96	1861.0772373844
1	182	97	1851.0875595547
1	183	98	1841.096139106
1	184	99	1831.1202287339
1	185	100	1821.144089778
1	186	101	1811.1678648908
1	187	102	1801.1912086597
1	188	103	1791.209887621
1	189	104	1781.2482476477
1	190	105	1771.277584523
1	191	106	1761.5227281116
1	192	107	1751.9260671614
1	193	108	1742.3262181729
1	194	109	1732.5843797447
1	195	110	1722.8299162164
1	196	111	1713.086449923
1	197	112	1703.3381465003
1	198	113	1693.5765614985
1	199	114	1683.8264469272
1	200	115	1674.0761652095
1	201	116	1664.3203321155
1	202	117	1654.5670952313
1	203	118	1644.823870291
1	204	119	1635.0678587342
1	205	120	1625.336210235
1	206	121	1615.5782095939
1	207	122	1605.8165506711
1	208	123	1596.0659276582
1	209	124	1586.3064208571
1	210	125	1576.5483956924
1	211	126	1566.7923985375
1	212	127	1557.0515624536
1	213	128	1547.2834782302
1	214	129	1537.3798678434
1	215	130	1527.4649110558
1	216	131	1517.5608619647
1	217	132	1507.6508360393
1	218	133	1497.737215165
1	219	134	1488.4719928391
1	220	135	1479.3458707612
1	221	136	1470.2179115769
1	222	137	1461.0960824257
1	223	138	1451.9691580441
1	224	139	1443.4222617447
1	225	140	1435.3820641451
1	226	141	1427.3446103698
1	227	142	1419.3110376056
1	228	143	1411.2766984925
1	229	144	1404.4971290641
1	230	145	1398.5528459009
2	3	2	4.1061966058897
2	4	3	6.0195495591482
2	5	4	7.7148368984793
2	6	5	9.5879868385225
2	7	6	11.391389363371
2	8	7	13.513839789145
2	9	8	13.99235115225
2	10	9	13.890224446259
2	11	10	13.976677174468
2	12	11	13.994826577434
2	13	12	13.923680325528
2	14	13	13.923542996629
2	15	14	13.91007151508
2	16	15	13.964598868005
2	17	16	13.995233640105
2	18	17	13.952304350403
2	19	18	13.956911946491
2	20	19	11.503494614513
2	21	20	7.0034946145128
2	22	21	7.8970062485022
2	23	22	10.10483181514
2	24	23	11.990706169653
2	25	24	13.981089308816
2	26	25	13.965594365916
2	27	26	13.989059597438
2	28	27	13.956378436291
2	29	28	13.910982951869
2	30	29	13.88918493646
2	31	30	13.908189346099
2	32	31	13.983992603337
2	33	32	13.971500478752
2	34	33	13.873081948087
2	35	34	13.985133641064
2	36	35	13.886848415199
2	37	36	13.876205747321
2	38	37	13.967912819823
2	39	38	13.871047234884
2	40	39	13.89239756926
2	41	40	13.872267716837
2	42	41	13.999815066161
2	43	42	13.964707984752
2	44	43	13.906584702837
2	45	44	13.922364303169
2	46	45	13.929034490574
2	47	46	13.93922677479
2	48	47	13.924399639922
2	49	48	13.96850544848
2	50	49	13.986686690277
2	51	50	13.935194088209
2	52	51	13.930097484484
2	53	52	13.948393711536
2	54	53	13.882971800906
2	55	54	13.87138918183
2	56	55	13.933780807857
2	57	56	13.942265776542
2	58	57	13.95140511482
2	59	58	13.886548467774
2	60	59	13.920721456567
2	61	60	13.906796863726
2	62	61	13.917803910668
2	63	62	13.924582225601
2	64	63	13.959688465288
2	65	64	13.957318032989
2	67	65	13.940553226951
2	151	66	13.998651232829
2	152	67	13.999179182528
2	153	68	13.886099785112
2	154	69	13.881868150404
2	155	70	13.887636745651
2	156	71	13.978686858166
2	157	72	11.380505228889
2	158	73	6.8805052288885
2	159	74	8.4946715655791
2	160	75	10.462119500426
2	161	76	12.535577293956
2	162	77	13.991704303646
2	163	78	13.884412832095
2	164	79	13.939308186586
2	165	80	13.975432322551
2	166	81	13.918436620038
2	167	82	13.942294309565
2	168	83	13.978181636031
2	169	84	13.992612206677
2	170	85	13.973604970614
2	171	86	13.905247902325
2	172	87	13.91578970917
2	173	88	13.942760436635
2	174	89	13.903644982614
2	175	90	13.957507387074
2	176	91	13.990155698378
2	177	92	13.951199041368
2	178	93	13.920407453054
2	179	94	13.913764986643
2	180	95	13.919862737071
2	181	96	13.927667983579
2	182	97	13.987681491903
2	183	98	13.949967818004
2	184	99	13.923793041168
2	185	100	13.956372545112
2	186	101	13.893336640052
2	187	102	13.920919575624
2	188	103	13.944676370309
2	189	104	13.937630747855
2	190	105	13.901362465066
2	191	106	13.954829121996
2	192	107	13.995929163198
2	193	108	13.882499602956
2	194	109	13.910075074201
2	195	110	13.894284862701
2	196	111	13.913974985913
2	197	112	13.871336730926
2	198	113	13.935027445888
2	199	114	13.877062078733
2	200	115	13.981228611642
2	201	116	13.873776447547
2	202	117	13.92000553376
2	203	118	13.94351971182
2	204	119	13.968914518312
2	205	120	13.898790548788
2	206	121	13.952566244465
2	207	122	13.902741317735
2	208	123	13.901865296939
2	209	124	13.981241170191
2	210	125	13.8802250754
2	211	126	13.893757563008
2	212	127	13.915271799301
2	213	128	13.929496678174
2	214	129	13.878089943773
2	215	130	13.993096217676
2	216	131	13.875779724845
2	217	132	13.913274697398
2	218	133	13.919895130382
2	219	134	13.88549514615
2	220	135	13.879287964974
2	221	136	13.94209516291
2	222	137	13.887332082232
2	223	138	13.946347575046
2	224	139	13.932372469571
2	225	140	13.922565494154
2	226	141	13.941802534193
2	227	142	13.953375940905
2	228	143	13.932419939607
2	229	144	13.946562061303
2	230	145	13.880639836157
3	4	3	1.9133529532584
3	5	4	1.6952873393311
3	6	5	1.8731499400432
3	7	6	1.8034025248489
3	8	7	2.1224504257739
3	9	8	0.47851136310433
3	10	9	-0.1021267059911
3	11	10	0.086452728209551
3	12	11	0.018149402965792
3	13	12	-0.071146251906175
3	14	13	-0.0001373288989992
3	15	14	-0.013471481548622
3	16	15	0.054527352924923
3	17	16	0.03063477210002
3	18	17	-0.04292928970186
3	19	18	0.0046075960877356
3	20	19	-2.4534173319781
3	21	20	-4.5
3	22	21	0.8935116339894
3	23	22	2.2078255666373
3	24	23	1.8858743545134
3	25	24	1.9903831391631
3	26	25	-0.01549494290026
3	27	26	0.023465231521987
3	28	27	-0.032681161146611
3	29	28	-0.045395484422334
3	30	29	-0.021798015409148
3	31	30	0.019004409639164
3	32	31	0.075803257238585
3	33	32	-0.012492124584968
3	34	33	-0.098418530665803
3	35	34	0.11205169297755
3	36	35	-0.098285225864965
3	37	36	-0.01064266787842
3	38	37	0.091707072502468
3	39	38	-0.096865584938786
3	40	39	0.021350334375166
3	41	40	-0.020129852422979
3	42	41	0.12754734932445
3	43	42	-0.035107081409079
3	44	43	-0.058123281914741
3	45	44	0.015779600332026
3	46	45	0.0066701874043797
3	47	46	0.010192284216172
3	48	47	-0.014827134867664
3	49	48	0.044105808557942
3	50	49	0.018181241797283
3	51	50	-0.051492602068466
3	52	51	-0.0050966037251055
3	53	52	0.018296227052343
3	54	53	-0.065421910630539
3	55	54	-0.011582619075197
3	56	55	0.062391626026946
3	57	56	0.0084849686850799
3	58	57	0.0091393382777465
3	59	58	-0.064856647045817
3	60	59	0.034172988792415
3	61	60	-0.013924592840485
3	62	61	0.011007046941668
3	63	62	0.0067783149331806
3	64	63	0.035106239686721
3	65	64	-0.0023704322986315
3	67	65	-0.016764806038699
3	151	66	0.058098005878273
3	152	67	0.0005279496987356
3	153	68	-0.11307939741528
3	154	69	-0.0042316347081215
3	155	70	0.0057685952470639
3	156	71	0.091050112515221
3	157	72	-2.598181629278
3	158	73	-4.5
3	159	74	1.6141663366905
3	160	75	1.9674479348469
3	161	76	2.0734577935305
3	162	77	1.4561270096891
3	163	78	-0.10729147155071
3	164	79	0.054895354490727
3	165	80	0.036124135965947
3	166	81	-0.056995702513959
3	167	82	0.023857689527794
3	168	83	0.035887326465454
3	169	84	0.014430570646654
3	170	85	-0.01900723606348
3	171	86	-0.068357068288606
3	172	87	0.010541806844994
3	173	88	0.026970727464649
3	174	89	-0.039115454021376
3	175	90	0.053862404460089
3	176	91	0.032648311303928
3	177	92	-0.038956657010131
3	178	93	-0.030791588313878
3	179	94	-0.0066424664109945
3	180	95	0.0060977504285979
3	181	96	0.0078052465082141
3	182	97	0.060013508324046
3	183	98	-0.037713673899415
3	184	99	-0.026174776835834
3	185	100	0.032579503944145
3	186	101	-0.063035905060826
3	187	102	0.027582935572138
3	188	103	0.023756794685031
3	189	104	-0.0070456224540241
3	190	105	-0.036268282788805
3	191	106	0.053466656929812
3	192	107	0.041100041202736
3	193	108	-0.11342956024222
3	194	109	0.027575471245218
3	195	110	-0.015790211500134
3	196	111	0.019690123212058
3	197	112	-0.042638254987542
3	198	113	0.063690714961849
3	199	114	-0.057965367154683
3	200	115	0.10416653290857
3	201	116	-0.10745216409443
3	202	117	0.046229086213279
3	203	118	0.023514178059996
3	204	119	0.025394806491676
3	205	120	-0.070123969523701
3	206	121	0.05377569567645
3	207	122	-0.04982492672978
3	208	123	-0.00087602079613092
3	209	124	0.079375873252284
3	210	125	-0.1010160947917
3	211	126	0.013532487608026
3	212	127	0.021514236293733
3	213	128	0.014224878873211
3	214	129	-0.051406734401827
3	215	130	0.11500627390342
3	216	131	-0.11731649283087
3	217	132	0.037494972553104
3	218	133	0.0066204329836186
3	219	134	-0.034399984232149
3	220	135	-0.0062071811757054
3	221	136	0.062807197936344
3	222	137	-0.054763080677949
3	223	138	0.059015492813197
3	224	139	-0.013975105474238
3	225	140	-0.0098069754173054
3	226	141	0.019237040039153
3	227	142	0.011573406711687
3	228	143	-0.020956001298037
3	229	144	0.014142121695913
3	230	145	-0.065922225145624
4	4	3	4.1962556146115
4	5	4	4.6765885426193
4	6	5	5.9822455727343
4	7	6	6.7469998477461
4	8	7	8.9023657158011
4	9	8	3.651678681686
4	10	9	1.6857621818206
4	11	10	2.3276633668785
4	12	11	2.0995306276608
4	13	12	1.7923040941768
4	14	13	2.0305681317735
4	15	14	1.9844951865828
4	16	15	2.2187318873595
4	17	16	2.1416854339172
4	18	17	1.8896148890835
4	19	18	2.0499339673421
4	20	19	0.973
4	21	20	0.973
4	22	21	3.236958348016
4	23	22	7.0694109561587
4	24	23	7.2974163894139
4	25	24	8.7433911631671
4	26	25	1.9831721788576
4	27	26	2.116835898497
4	28	27	1.9244585801898
4	29	28	1.8775583559564
4	30	29	1.9545657515643
4	31	30	2.0931646705581
4	32	31	2.2926746988581
4	33	32	1.993865292131
4	34	33	1.6968396252803
4	35	34	2.4149847823944
4	36	35	1.6983583398882
4	37	36	1.9906198998388
4	38	37	2.3442713071536
4	39	38	1.7018725964397
4	40	39	2.0993392475273
4	41	40	1.9585122345881
4	42	41	2.4691677522194
4	43	42	1.9170802753567
4	44	43	1.8345014514108
4	45	44	2.0838538984303
4	46	45	2.0539801513469
4	47	46	2.0668686152862
4	48	47	1.9813596940184
4	49	48	2.1840996762636
4	50	49	2.0987681125428
4	51	50	1.8592856847688
4	52	51	2.0145873760113
4	53	52	2.0950692067684
4	54	53	1.8080099866508
4	55	54	1.9870007069688
4	56	55	2.2415869227426
4	57	56	2.0614496349521
4	58	57	2.0646020593826
4	59	58	1.8102089718445
4	60	59	2.1453880261281
4	61	60	1.9826536733129
4	62	61	2.0673636130683
4	63	62	2.0538817544551
4	64	63	2.1528270365066
4	65	64	2.0265038417738
4	67	65	1.9764402783138
4	151	66	2.2347131127692
4	152	67	2.0405446651404
4	153	68	1.6487905152147
4	154	69	2.0126291187762
4	155	70	2.0466796925005
4	156	71	2.3433989621326
4	157	72	0.973
4	158	73	0.973
4	159	74	4.8809554156367
4	160	75	6.6811452761601
4	161	76	8.1607584221603
4	162	77	6.9480584672652
4	163	78	1.6680322027993
4	164	79	2.2170514259717
4	165	80	2.1579993066844
4	166	81	1.8393252185798
4	167	82	2.1131063774542
4	168	83	2.157506963768
4	169	84	2.0867532276998
4	170	85	1.9721338004887
4	171	86	1.8000889448787
4	172	87	2.0655927143501
4	173	88	2.1236171019815
4	174	89	1.8979343131076
4	175	90	2.2156768175481
4	176	91	2.1479163480387
4	177	92	1.9028703189759
4	178	93	1.9274090838955
4	179	94	2.0077586487826
4	180	95	2.0511097794732
4	181	96	2.0576484682309
4	182	97	2.2398922754829
4	183	98	1.9069349143407
4	184	99	1.9432214712872
4	185	100	2.1439613436349
4	186	101	1.8168896615362
4	187	102	2.1233006114287
4	188	103	2.1130242583451
4	189	104	2.0088001748926
4	190	105	1.9072621324086
4	191	106	2.2140373373517
4	192	107	2.1770614278808
4	193	108	1.6473510828978
4	194	109	2.1220983905492
4	195	110	1.9751750017376
4	196	111	2.0960799393481
4	197	112	1.8831767790609
4	198	113	2.2460956727086
4	199	114	1.8324400030243
4	200	115	2.3879104851153
4	201	116	1.6666890233496
4	202	117	2.1857539942143
4	203	118	2.1120842252302
4	204	119	2.1211551333534
4	205	120	1.7936195303491
4	206	121	2.2148160768082
4	207	122	1.8619680915987
4	208	123	2.0258853731746
4	209	124	2.304380476416
4	210	125	1.6887067812302
4	211	126	2.0733073570021
4	212	127	2.1023355462812
4	213	128	2.0793892076523
4	214	129	1.8544662206567
4	215	130	2.4259796074968
4	216	131	1.633853726441
4	217	132	2.1557066895618
4	218	133	2.0528665696243
4	219	134	1.912038644498
4	220	135	2.0057614883071
4	221	136	2.2439569957465
4	222	137	1.8440580280714
4	223	138	2.231711462374
4	224	139	1.9850053294315
4	225	140	1.9980235595548
4	226	141	2.0975280706569
4	227	142	2.0729929956751
4	228	143	1.9615701670856
4	229	144	2.0809115709552
4	230	145	1.8061360510748
5	5	4	2414.8767583254
5	6	5	2411.8725636174
5	7	6	2407.2970525089
5	8	7	2402.4626210862
5	9	8	2396.3056860371
5	10	9	2388.8743536096
5	11	10	2380.097228827
5	12	11	2370.3507264333
5	13	12	2360.5878487076
5	14	13	2350.7849318213
5	15	14	2341.2418729237
5	16	15	2334.6305580324
5	17	16	2337.3467480277
5	18	17	2348.0519014368
5	19	18	2358.3998493504
5	20	19	2371.2788021446
5	21	20	2385.0887639745
5	22	21	2398.4985461925
5	23	22	2411.2485283293
5	24	23	2420.6905829484
5	25	24	2427.6440450998
5	26	25	2431.3031180431
5	27	26	2432.9057471878
5	28	27	2434.8184996871
5	29	28	2436.9106889558
5	30	29	2438.5031214217
5	31	30	2439.359314087
5	32	31	2440.3695716034
5	33	32	2441.3815056744
5	34	33	2442.392207776
5	35	34	2443.4019859718
5	36	35	2444.4122552489
5	37	36	2445.4251439738
5	38	37	2446.4367595227
5	39	38	2447.4467230743
5	40	39	2448.4574488286
5	41	40	2449.467800329
5	42	41	2450.4780716181
5	43	42	2449.7461704329
5	44	43	2448.6331060936
5	45	44	2447.5209445587
5	46	45	2446.407523851
5	47	46	2445.2946584851
5	48	47	2444.1824360332
5	49	48	2443.0706190476
5	50	49	2441.9568028547
5	51	50	2440.8451110823
5	52	51	2439.8503503047
5	53	52	2438.9091742415
5	54	53	2438.2310626655
5	55	54	2433.9050446447
5	56	55	2424.21615465
5	57	56	2411.3460908785
5	58	57	2397.4706148925
5	59	58	2383.5587488873
5	60	59	2369.633660475
5	61	60	2355.7048479554
5	62	61	2341.7904321874
5	63	62	2327.8638711022
5	64	63	2313.9188814831
5	65	64	2299.9979078089
5	67	65	2286.0826278217
5	151	66	2272.1551827891
5	152	67	2258.2333055256
5	153	68	2244.3319301521
5	154	69	2230.5388995206
5	155	70	2216.7493601282
5	156	71	2203.5089906314
5	157	72	2190.3028214657
5	158	73	2177.2175397498
5	159	74	2165.2424954871
5	160	75	2153.7742474813
5	161	76	2145.5067126864
5	162	77	2139.5021617314
5	163	78	2133.1382634535
5	164	79	2125.5907683726
5	165	80	2116.6856371113
5	166	81	2107.1659774036
5	167	82	2097.6471887421
5	168	83	2088.1193509075
5	169	84	2078.5897193553
5	170	85	2069.0611372048
5	171	86	2059.5358263678
5	172	87	2050.0131364827
5	173	88	2040.1145859665
5	174	89	2030.1137191838
5	175	90	2020.1430603783
5	176	91	2010.1475011546
5	177	92	2000.1671663148
5	178	93	1990.1688805242
5	179	94	1980.1967867191
5	180	95	1970.2022643924
5	181	96	1960.2251632516
5	182	97	1950.2447792089
5	183	98	1940.2416033717
5	184	99	1930.4505492545
5	185	100	1920.7111281679
5	186	101	1910.9822782709
5	187	102	1901.2447243325
5	188	103	1891.5146576024
5	189	104	1881.7809631245
5	190	105	1872.0450304444
5	191	106	1862.3040305478
5	192	107	1852.5818645544
5	193	108	1842.8447400127
5	194	109	1832.9814100579
5	195	110	1822.8651402954
5	196	111	1812.7663602663
5	197	112	1802.7683831069
5	198	113	1792.8207055556
5	199	114	1782.8564651203
5	200	115	1772.894810806
5	201	116	1762.92641096
5	202	117	1752.9705464942
5	203	118	1743.0163782743
5	204	119	1733.0664695518
5	205	120	1723.1120307929
5	206	121	1713.1667215774
5	207	122	1703.2092787605
5	208	123	1693.2786226055
5	209	124	1683.3212558794
5	210	125	1673.3672220533
5	211	126	1663.423033799
5	212	127	1653.4787248627
5	213	128	1643.5397330167
5	214	129	1633.5919175781
5	215	130	1623.642267259
5	216	131	1613.8052561329
5	217	132	1603.9772865096
5	218	133	1594.1566123093
5	219	134	1584.3343173611
5	220	135	1574.5137175376
5	221	136	1564.689460578
5	222	137	1554.4463748336
5	223	138	1543.8860753127
5	224	139	1533.3342540794
5	225	140	1522.7942046572
5	226	141	1512.2606988159
5	227	142	1501.4789940106
5	228	143	1490.0699286098
5	229	144	1478.6607307259
5	230	145	1467.2472934014
6	5	4	1578.4506684253
6	6	5	1579.5537930429
6	7	6	1581.4165868293
6	8	7	1586.3131998433
6	9	8	1592.5493268352
6	10	9	1600.0762428036
6	11	10	1608.9662610246
6	12	11	1618.8381252186
6	13	12	1628.7265753681
6	14	13	1638.6555796713
6	15	14	1648.8046840783
6	16	15	1660.6325348346
6	17	16	1673.301875555
6	18	17	1682.2138796467
6	19	18	1691.5459182626
6	20	19	1695.5099147679
6	21	20	1697.3308411958
6	22	21	1698.6335971011
6	23	22	1699.8391930545
6	24	23	1700.7320023719
6	25	24	1701.2941834759
6	26	25	1708.3978488175
6	27	26	1718.9439634858
6	28	27	1731.5308475178
6	29	28	1745.2985167308
6	30	29	1759.1189484736
6	31	30	1773.033284259
6	32	31	1786.9263172904
6	33	32	1800.8424062571
6	34	33	1814.7415532097
6	35	34	1828.6279946407
6	36	35	1842.5211894047
6	37	36	1856.4504067414
6	38	37	1870.362115399
6	39	38	1884.2511058366
6	40	39	1898.150578063
6	41	40	1912.0449035605
6	42	41	1925.9381259941
6	43	42	1939.8457802581
6	44	43	1953.7382693188
6	45	44	1967.6194902081
6	46	45	1981.5164272105
6	47	46	1995.4064328251
6	48	47	2009.2884140396
6	49	48	2023.165334505
6	50	49	2037.0672076773
6	51	50	2050.942565321
6	52	51	2064.8483957723
6	53	52	2078.754013543
6	54	53	2092.6537938379
6	55	54	2105.6893007364
6	56	55	2115.3934075218
6	57	56	2120.5034639826
6	58	57	2120.5707901428
6	59	58	2120.100904949
6	60	59	2119.6305731572
6	61	60	2119.160115581
6	62	61	2118.6901442679
6	63	62	2118.2197627351
6	64	63	2117.748758764
6	65	64	2117.2785659507
6	67	65	2116.8085654471
6	151	66	2116.3381540589
6	152	67	2115.8679307271
6	153	68	2115.0734324455
6	154	69	2113.117474094
6	155	70	2111.1620108271
6	156	71	2106.8134566117
6	157	72	2102.3345389208
6	158	73	2097.6439806372
6	159	74	2090.5944611588
6	160	75	2083.8432846358
6	161	76	2078.976317442
6	162	77	2075.2888157107
6	163	78	2069.0204663062
6	164	79	2060.9635068728
6	165	80	2051.4572692998
6	166	81	2041.2950219223
6	167	82	2031.1337043885
6	168	83	2020.9627268519
6	169	84	2010.7898345208
6	170	85	2000.6180624254
6	171	86	1990.4497824619
6	172	87	1980.2843003673
6	173	88	1970.4765505949
6	174	89	1960.7547187759
6	175	90	1951.0622520996
6	176	91	1941.3455797536
6	177	92	1931.6437070146
6	178	93	1921.9243841758
6	179	94	1912.2305225376
6	180	95	1902.5148581574
6	181	96	1892.8161288938
6	182	97	1883.1142083248
6	183	98	1873.3901318768
6	184	99	1863.491690998
6	185	100	1853.5113144172
6	186	101	1843.5417705588
6	187	102	1833.5633073198
6	188	103	1823.5925165238
6	189	104	1813.618008229
6	190	105	1803.6412063586
6	191	106	1793.6592119075
6	192	107	1783.6965173148
6	193	108	1773.7184940958
6	194	109	1763.8847696399
6	195	110	1754.2768921675
6	196	111	1744.6856254824
6	197	112	1734.9963352662
6	198	113	1725.2474866733
6	199	114	1715.4824062474
6	200	115	1705.7198602511
6	201	116	1695.9507035501
6	202	117	1686.1938316785
6	203	118	1676.4386221487
6	204	119	1666.6875869809
6	205	120	1656.9321123194
6	206	121	1647.1855847258
6	207	122	1637.4271660503
6	208	123	1627.6949986387
6	209	124	1617.9366545333
6	210	125	1608.1815767121
6	211	126	1598.436147674
6	212	127	1588.6906003654
6	213	128	1578.9502638727
6	214	129	1569.2012801487
6	215	130	1559.4504982186
6	216	131	1549.7097596042
6	217	132	1539.7888785042
6	218	133	1529.8753617955
6	219	134	1519.9602090176
6	220	135	1510.0467673885
6	221	136	1500.1296340507
6	222	137	1490.655481996
6	223	138	1481.5207661148
6	224	139	1472.3933839975
6	225	140	1463.2761845598
6	226	141	1454.1646453552
6	227	142	1445.3482786734
6	228	143	1437.3080721097
6	229	144	1429.2677721828
6	230	145	1421.2244846337
7	6	5	4.0332649588119
7	7	6	5.8265110515686
7	8	7	7.7852127750962
7	9	8	9.5658873894228
7	10	9	11.450149483434
7	11	10	13.391487500134
7	12	11	13.949883621705
7	13	12	13.87602620427
7	14	13	13.885232782268
7	15	14	13.987373048679
7	16	15	13.890608048609
7	17	16	13.887004709987
7	18	17	13.926980708602
7	19	18	13.89086526999
7	20	19	13.965056618985
7	21	20	13.946692067499
7	22	21	13.097137451398
7	23	22	11.939132677032
7	24	23	7.4783001788439
7	25	24	7.8592269216425
7	26	25	9.5749213322898
7	27	26	11.610942506126
7	28	27	13.581243869506
7	29	28	13.973211987913
7	30	29	13.918392209036
7	31	30	13.928662607018
7	32	31	13.985277111761
7	33	32	13.95532245066
7	34	33	13.938708755139
7	35	34	13.908545650935
7	36	35	13.927478809105
7	37	36	13.897819017794
7	38	37	13.989504252097
7	39	38	13.94374062394
7	40	39	13.903882643976
7	41	40	13.969130632835
7	42	41	13.884234787642
7	43	42	13.881978327318
7	44	43	13.927070145076
7	45	44	13.922745489741
7	46	45	13.95273740395
7	47	46	13.968270483359
7	48	47	13.918685564972
7	49	48	13.921468284922
7	50	49	13.897015957548
7	51	50	13.964752228069
7	52	51	13.91147568828
7	53	52	13.974545761354
7	54	53	13.965476403411
7	55	54	13.989670229855
7	56	55	13.951804798429
7	57	56	13.892850009208
7	58	57	13.958218119799
7	59	58	13.933717581006
7	60	59	13.982012811573
7	61	60	13.954506225567
7	62	61	13.954468280503
7	63	62	13.914126337939
7	64	63	13.998578815588
7	65	64	13.932968401979
7	67	65	13.954534002345
7	151	66	13.957377178506
7	152	67	13.932528918332
7	153	68	13.977439161665
7	154	69	13.873707558191
7	155	70	13.945779315263
7	156	71	13.942668949808
7	157	72	13.91575948562
7	158	73	13.907857767178
7	159	74	13.74288410399
7	160	75	12.057991498623
7	161	76	7.5687227125094
7	162	77	7.8527784139012
7	163	78	9.8502493766883
7	164	79	11.94908444162
7	165	80	13.947927183691
7	166	81	13.884608772129
7	167	82	13.932486002932
7	168	83	13.933768573357
7	169	84	13.982790281298
7	170	85	13.883384850675
7	171	86	13.990208008899
7	172	87	13.960943002203
7	173	88	13.999323605334
7	174	89	13.898829272678
7	175	90	13.923322260124
7	176	91	13.97501944537
7	177	92	13.884102251558
7	178	93	13.933503699079
7	179	94	13.929935510485
7	180	95	13.932084917249
7	181	96	13.988024637371
7	182	97	13.905199357776
7	183	98	13.983067730833
7	184	99	13.914689087677
7	185	100	13.959573372188
7	186	101	13.923151327679
7	187	102	13.932330102022
7	188	103	13.918786156045
7	189	104	13.941547459932
7	190	105	13.993384758611
7	191	106	13.9334619325
7	192	107	13.965882125574
7	193	108	13.965947124253
7	194	109	13.962241288945
7	195	110	13.920445105487
7	196	111	13.900235885235
7	197	112	13.927397497708
7	198	113	13.881139268694
7	199	114	13.958390111653
7	200	115	13.981258456206
7	201	116	13.984943927396
7	202	117	13.922500399102
7	203	118	13.970498575137
7	204	119	13.977092044705
7	205	120	13.902077802429
7	206	121	13.948530204676
7	207	122	13.937833442583
7	208	123	13.893066050755
7	209	124	13.87004156227
7	210	125	13.968004257404
7	211	126	13.928819306882
7	212	127	13.940418895127
7	213	128	13.885829770393
7	214	129	13.911612131749
7	215	130	13.982987889522
7	216	131	13.906395649859
7	217	132	13.981866144668
7	218	133	13.928634459185
7	219	134	13.90009441277
7	220	135	13.90528861128
7	221	136	13.973518176838
7	222	137	13.924807656489
7	223	138	13.942096447786
7	224	139	13.933840963931
7	225	140	13.933469208681
7	226	141	13.907491463344
7	227	142	13.878026930129
7	228	143	13.948313778332
7	229	144	13.873854416783
7	230	145	13.963481205879
8	7	6	1.7932460927567
8	8	7	1.9587017235276
8	9	8	1.7806746143266
8	10	9	1.8842620940111
8	11	10	1.9413380167005
8	12	11	0.5583961215709
8	13	12	-0.073857417434921
8	14	13	0.0092065779981212
8	15	14	0.10214026641101
8	16	15	-0.096765000070445
8	17	16	-0.0036033386224883
8	18	17	0.039975998615846
8	19	18	-0.036115438612178
8	20	19	0.074191348995083
8	21	20	-0.018364551486448
8	22	21	-0.84955461610103
8	23	22	-1.1580047743662
8	24	23	-4.4608324981877
8	25	24	0.38092674279862
8	26	25	1.7156944106473
8	27	26	2.0360211738362
8	28	27	1.9703013633797
8	29	28	0.39196811840698
8	30	29	-0.054819778876846
8	31	30	0.010270397982096
8	32	31	0.056614504742901
8	33	32	-0.029954661100637
8	34	33	-0.016613695521373
8	35	34	-0.030163104203529
8	36	35	0.018933158169965
8	37	36	-0.029659791311714
8	38	37	0.091685234303586
8	39	38	-0.045763628156855
8	40	39	-0.039857979963999
8	41	40	0.065247988859191
8	42	41	-0.08489584519295
8	43	42	-0.0022564603248618
8	44	43	0.045091817758511
8	45	44	-0.0043246553349299
8	46	45	0.029991914208512
8	47	46	0.015533079409506
8	48	47	-0.0495849183877
8	49	48	0.0027827199501917
8	50	49	-0.024452327373437
8	51	50	0.067736270520836
8	52	51	-0.053276539789513
8	53	52	0.063070073074195
8	54	53	-0.0090693579427903
8	55	54	0.024193826443517
8	56	55	-0.037865431425162
8	57	56	-0.058954789221753
8	58	57	0.065368110591081
8	59	58	-0.024500538792926
8	60	59	0.048295230567454
8	61	60	-0.027506586005911
8	62	61	-3.7945064249811e-05
8	63	62	-0.040341942564119
8	64	63	0.08445247764932
8	65	64	-0.065610413609539
8	67	65	0.021565600365866
8	151	66	0.0028431761614058
8	152	67	-0.024848260174041
8	153	68	0.044910243332852
8	154	69	-0.10373160347343
8	155	70	0.072071757072118
8	156	71	-0.0031103654555054
8	157	72	-0.02690946418792
8	158	73	-0.0079017184418628
8	159	74	-0.16497366318824
8	160	75	-1.6848926053673
8	161	76	-4.4892687861132
8	162	77	0.28405570139177
8	163	78	1.997470962787
8	164	79	2.0988350649318
8	165	80	1.9988427420706
8	166	81	-0.063318411561289
8	167	82	0.04787723080255
8	168	83	0.0012825704249551
8	169	84	0.049021707940847
8	170	85	-0.099405430622864
8	171	86	0.10682315822458
8	172	87	-0.029265006696805
8	173	88	0.038380603131372
8	174	89	-0.1004943326558
8	175	90	0.024492987445557
8	176	91	0.05169718524674
8	177	92	-0.090917193812784
8	178	93	0.049401447521522
8	179	94	-0.0035681885946541
8	180	95	0.0021494067646568
8	181	96	0.055939720121678
8	182	97	-0.082825279594399
8	183	98	0.077868373056408
8	184	99	-0.068378643156029
8	185	100	0.044884284511209
8	186	101	-0.036422044509091
8	187	102	0.0091787743428728
8	188	103	-0.013543945976998
8	189	104	0.022761303887236
8	190	105	0.051837298679166
8	191	106	-0.059922826110851
8	192	107	0.032420193073339
8	193	108	6.4998678864114e-05
8	194	109	-0.0037058353074837
8	195	110	-0.041796183458063
8	196	111	-0.020209220252001
8	197	112	0.02716161247343
8	198	113	-0.04625822901493
8	199	114	0.07725084295962
8	200	115	0.022868344553281
8	201	116	0.003685471189673
8	202	117	-0.062443528294096
8	203	118	0.04799817603547
8	204	119	0.0065934695675978
8	205	120	-0.075014242276085
8	206	121	0.046452402246651
8	207	122	-0.010696762092412
8	208	123	-0.044767391828353
8	209	124	-0.023024488484953
8	210	125	0.097962695134338
8	211	126	-0.039184950522614
8	212	127	0.011599588245154
8	213	128	-0.054589124734047
8	214	129	0.025782361356541
8	215	130	0.071375757772476
8	216	131	-0.076592239663006
8	217	132	0.075470494809561
8	218	133	-0.053231685482897
8	219	134	-0.028540046415291
8	220	135	0.0051941985101429
8	221	136	0.068229565557559
8	222	137	-0.048710520348978
8	223	138	0.017288791297469
8	224	139	-0.0082554838550273
8	225	140	-0.00037175524979816
8	226	141	-0.025977745337878
8	227	142	-0.029464533214922
8	228	143	0.070286848202812
8	229	144	-0.074459361548069
8	230	145	0.089626789095345
9	7	6	3.9274001426868
9	8	7	5.2041356246368
9	9	8	5.7574507674447
9	10	9	7.0006276784153
9	11	10	8.2432295261252
9	12	11	3.9110016848773
9	13	12	1.7792042638201
9	14	13	2.0579365757541
9	15	14	2.3818636967155
9	16	15	1.7037407999188
9	17	16	2.0152488537881
9	18	17	2.1655550639215
9	19	18	1.906797412239
9	20	19	2.2849654495652
9	21	20	1.9716653983805
9	22	21	0.973
9	23	22	0.973
9	24	23	0.973
9	25	24	2.2554772362628
9	26	25	5.6120472675651
9	27	26	7.5119842129131
9	28	27	8.4455276517466
9	29	28	3.3560730035355
9	30	29	1.8466200733259
9	31	30	2.0660268329645
9	32	31	2.2281549844786
9	33	32	1.9335288120447
9	34	33	1.9767670407741
9	35	34	1.9283950769156
9	36	35	2.0949799016024
9	37	36	1.9290667558988
9	38	37	2.3468857079218
9	39	38	1.8793040227889
9	40	39	1.8954681876561
9	41	40	2.2553467174174
9	42	41	1.7429567241042
9	43	42	2.0192482635441
9	44	43	2.1827359052182
9	45	44	2.0164367628106
9	46	45	2.1348602115454
9	47	46	2.0878872407227
9	48	47	1.8642059318509
9	49	48	2.0401536442479
9	50	49	1.9464315106901
9	51	50	2.2632042711189
9	52	51	1.851180617826
9	53	52	2.2486511283506
9	54	53	2.0047870143605
9	55	54	2.1193583924862
9	56	55	1.9065956504161
9	57	56	1.8305118457369
9	58	57	2.2544630998412
9	59	58	1.9497933768092
9	60	59	2.199742909699
9	61	60	1.9416842431598
9	62	61	2.0340583936544
9	63	62	1.8947902862501
9	64	63	2.3236156337703
9	65	64	1.8116807487081
9	67	65	2.1067187558746
9	151	66	2.0440470145686
9	152	67	1.9485115452067
9	153	68	2.1878187851485
9	154	69	1.6791237400594
9	155	70	2.2755265645048
9	156	71	2.0225291815531
9	157	72	1.9399893034582
9	158	73	2.0029455902709
9	159	74	1.4663345211208
9	160	75	0.973
9	161	76	0.973
9	162	77	2.0711335261948
9	163	78	6.4152831024102
9	164	79	7.8881081638602
9	165	80	8.7525284671264
9	166	81	1.815189301835
9	167	82	2.1926999225795
9	168	83	2.0363789456198
9	169	84	2.2022797105907
9	170	85	1.6943401481553
9	171	86	2.3980130110749
9	172	87	1.9363832529257
9	173	88	2.1682681767827
9	174	89	1.6918937064968
9	175	90	2.1131931668759
9	176	91	2.2104031609639
9	177	92	1.7227981158715
9	178	93	2.1979337916806
9	179	94	2.0197021153789
9	180	95	2.0391171435245
9	181	96	2.2261991945464
9	182	97	1.7515996111392
9	183	98	2.2995223407801
9	184	99	1.8008227620704
9	185	100	2.1857101524767
9	186	101	1.9087755896745
9	187	102	2.0627447358658
9	188	103	1.9851118107104
9	189	104	2.1093420628985
9	190	105	2.2129857683168
9	191	106	1.8308220216017
9	192	107	2.1444722311404
9	193	108	2.0355784928867
9	194	109	2.0225109202385
9	195	110	1.8904941269999
9	196	111	1.9609544694714
9	197	112	2.1225900669388
9	198	113	1.8719619172019
9	199	114	2.2944565722334
9	200	115	2.1139814038152
9	201	116	2.0497258004765
9	202	117	1.8214044611061
9	203	118	2.1974299774128
9	204	119	2.0587102346889
9	205	120	1.7775142086521
9	206	121	2.1897334323985
9	207	122	1.996556277867
9	208	123	1.8780334086171
9	209	124	1.9486210960065
9	210	125	2.3653409168875
9	211	126	1.9000292435893
9	212	127	2.0717212867176
9	213	128	1.8445072379646
9	214	129	2.1162534272185
9	215	130	2.2776331997634
9	216	131	1.7725872185708
9	217	132	2.2912967597894
9	218	133	1.8528600408083
9	219	134	1.9330331343468
9	220	135	2.0465755532814
9	221	136	2.2659055273814
9	222	137	1.8676913138819
9	223	138	2.0910132406566
9	224	139	2.0043570379106
9	225	140	2.030793134949
9	226	141	1.9423234639898
9	227	142	1.927848582712
9	228	143	2.2698294292933
9	229	144	1.7770096234678
9	230	145	2.3367194719381
10	8	7	2414.8848622198
10	9	8	2412.0691307599
10	10	9	2407.3819784434
10	11	10	2402.4639103656
10	12	11	2396.2016479742
10	13	12	2388.5021761758
10	14	13	2379.5347220144
10	15	14	2369.7521497252
10	16	15	2359.9648396304
10	17	16	2350.1637192596
10	18	17	2340.717056727
10	19	18	2334.4889366638
10	20	19	2338.0188398167
10	21	20	2348.6970945761
10	22	21	2359.0578910074
10	23	22	2372.1753142256
10	24	23	2385.9847009928
10	25	24	2399.0560799135
10	26	25	2411.469456295
10	27	26	2420.8240344936
10	28	27	2428.2511095385
10	29	28	2431.5096723901
10	30	29	2433.2168502312
10	31	30	2435.2011956087
10	32	31	2437.29147981
10	33	32	2438.672857787
10	34	33	2439.5458305131
10	35	34	2440.5569901068
10	36	35	2441.5662171456
10	37	36	2442.5764760413
10	38	37	2443.5864360537
10	39	38	2444.5969193554
10	40	39	2445.6077267987
10	41	40	2446.6171177449
10	42	41	2447.6285385494
10	43	42	2448.6389437378
10	44	43	2449.6489775468
10	45	44	2450.659299592
10	46	45	2449.5461587089
10	47	46	2448.4337074455
10	48	47	2447.3207898499
10	49	48	2446.207873206
10	50	49	2445.0940501215
10	51	50	2443.9833638043
10	52	51	2442.8694501355
10	53	52	2441.7571938549
10	54	53	2440.6460889142
10	55	54	2439.6824932018
10	56	55	2438.741084579
10	57	56	2437.8178922307
10	58	57	2432.628875918
10	59	58	2422.099758557
10	60	59	2408.9617932498
10	61	60	2395.0275024913
10	62	61	2381.1194986589
10	63	62	2367.2108877165
10	64	63	2353.2913366285
10	65	64	2339.3363710896
10	67	65	2325.3913249692
10	151	66	2311.4476897647
10	152	67	2297.4983647275
10	153	68	2283.5801531249
10	154	69	2269.6389171832
10	155	70	2255.7127677456
10	156	71	2241.8359768615
10	157	72	2228.0496562888
10	158	73	2214.3204117303
10	159	74	2201.1356404887
10	160	75	2187.9527212165
10	161	76	2175.0638567568
10	162	77	2163.8270147669
10	163	78	2153.0802669595
10	164	79	2145.0715277719
10	165	80	2138.8791204049
10	166	81	2132.1538470712
10	167	82	2124.1794652122
10	168	83	2114.9682953636
10	169	84	2105.4503674875
10	170	85	2095.9174355941
10	171	86	2086.3855086367
10	172	87	2076.854366392
10	173	88	2067.3279705069
10	174	89	2057.7989259652
10	175	90	2048.2657166205
10	176	91	2038.283265963
10	177	92	2028.2931978384
10	178	93	2018.3027401837
10	179	94	2008.3179219114
10	180	95	1998.3240517773
10	181	96	1988.3419555381
10	182	97	1978.344027573
10	183	98	1968.3550932935
10	184	99	1958.3543494703
10	185	100	1948.3578532202
10	186	101	1938.3583427321
10	187	102	1928.618618476
10	188	103	1918.8845092345
10	189	104	1909.1398994639
10	190	105	1899.4163005566
10	191	106	1889.6917406092
10	192	107	1879.9546263734
10	193	108	1870.2146439165
10	194	109	1860.4817766254
10	195	110	1850.7588696732
10	196	111	1841.0270894129
10	197	112	1831.0817296832
10	198	113	1820.9827286402
10	199	114	1810.8857373192
10	200	115	1800.9095892153
10	201	116	1790.9641635513
10	202	117	1781.0157404179
10	203	118	1771.0520895839
10	204	119	1761.0958624202
10	205	120	1751.1472190667
10	206	121	1741.1866997886
10	207	122	1731.2337222014
10	208	123	1721.2648128434
10	209	124	1711.2987581504
10	210	125	1701.3391836241
10	211	126	1691.3841495712
10	212	127	1681.4204026073
10	213	128	1671.4775354349
10	214	129	1661.510947821
10	215	130	1651.5625195977
10	216	131	1641.6257705317
10	217	132	1631.659872483
10	218	133	1621.7159509698
10	219	134	1611.9115374982
10	220	135	1602.1021759917
10	221	136	1592.291592988
10	222	137	1582.4770308963
10	223	138	1572.6518783064
10	224	139	1562.8318323046
10	225	140	1552.4442485711
10	226	141	1541.8906131162
10	227	142	1531.3348272494
10	228	143	1520.7834167578
10	229	144	1510.214847654
10	230	145	1499.2494909836
11	8	7	1578.4476927174
11	9	8	1579.4816146148
11	10	9	1581.3305685576
11	11	10	1586.311893981
11	12	11	1592.6547030602
11	13	12	1600.4532072712
11	14	13	1609.5360029312
11	15	14	1619.4444009606
11	16	15	1629.3575977338
11	17	16	1639.2847824143
11	18	17	1649.4765304932
11	19	18	1661.4854336744
11	20	19	1673.8446300924
11	21	20	1682.7957309801
11	22	21	1692.1393567109
11	23	22	1695.6439150097
11	24	23	1697.4374776948
11	25	24	1698.6863156371
11	26	25	1699.860083269
11	27	26	1700.7446211064
11	28	27	1701.4003788568
11	29	28	1709.757081449
11	30	29	1720.9911797
11	31	30	1734.0491812732
11	32	31	1747.8043141738
11	33	32	1761.6824669717
11	34	33	1775.5982529195
11	35	34	1789.5036912933
11	36	35	1803.3825532272
11	37	36	1817.2756052278
11	38	37	1831.1645469936
11	39	38	1845.0606850199
11	40	39	1858.9612806309
11	41	40	1872.8423966132
11	42	41	1886.7514271513
11	43	42	1900.646490965
11	44	43	1914.536447579
11	45	44	1928.4487420022
11	46	45	1942.3421864314
11	47	46	1956.2270235084
11	48	47	1970.117681019
11	49	48	1984.0083266487
11	50	49	1997.9102858361
11	51	50	2011.7730940934
11	52	51	2025.6761838896
11	53	52	2039.5585873295
11	54	53	2053.4266205495
11	55	54	2067.3284383547
11	56	55	2081.2374921273
11	57	56	2095.1151711773
11	58	57	2107.8121583294
11	59	58	2116.6019557538
11	60	59	2120.9589145361
11	61	60	2120.4882719275
11	62	61	2120.0185171831
11	63	62	2119.548741932
11	64	63	2119.0785971684
11	65	64	2118.6072562514
11	67	65	2118.1362503711
11	151	66	2117.6652921457
11	152	67	2117.1941417418
11	153	68	2116.724042221
11	154	69	2116.2531650327
11	155	70	2115.7827974036
11	156	71	2114.7194869779
11	157	72	2112.7644801643
11	158	73	2110.4801872596
11	159	74	2106.008526748
11	160	75	2101.537494339
11	161	76	2096.3761414643
11	162	77	2089.7611900093
11	163	78	2083.4347492605
11	164	79	2078.7201309539
11	165	80	2074.7913125623
11	166	81	2067.9696007185
11	167	82	2059.456939172
11	168	83	2049.6240050644
11	169	84	2039.46360642
11	170	85	2029.28719097
11	171	86	2019.1118482901
11	172	87	2008.9373432929
11	173	88	1998.7679050388
11	174	89	1988.5956393415
11	175	90	1978.4189277124
11	176	91	1968.6963263936
11	177	92	1958.9849919388
11	178	93	1949.2732788222
11	179	94	1939.5670477431
11	180	95	1929.8520173589
11	181	96	1920.1484323656
11	182	97	1910.4294573683
11	183	98	1900.7192251235
11	184	99	1890.9975128332
11	185	100	1881.2799296053
11	186	101	1871.5594162391
11	187	102	1861.6144378353
11	188	103	1851.6395045156
11	189	104	1841.6538108811
11	190	105	1831.6896479232
11	191	106	1821.7245001495
11	192	107	1811.7464874918
11	193	108	1801.7655356517
11	194	109	1791.7918750085
11	195	110	1781.8284211252
11	196	111	1771.8558744062
11	197	112	1762.0805575438
11	198	113	1752.4890809525
11	199	114	1742.8995130844
11	200	115	1733.1746939719
11	201	116	1723.4280522568
11	202	117	1713.6784729837
11	203	118	1703.9139703736
11	204	119	1694.1567430533
11	205	120	1684.4069479629
11	206	121	1674.6455143169
11	207	122	1664.8914716225
11	208	123	1655.121815593
11	209	124	1645.3549571708
11	210	125	1635.5944493935
11	211	126	1625.8383913375
11	212	127	1616.0737945186
11	213	128	1606.3296601577
11	214	129	1596.5622794665
11	215	130	1586.8126952061
11	216	131	1577.0745566655
11	217	132	1567.3078517569
11	218	133	1557.5626841281
11	219	134	1547.7981381677
11	220	135	1537.8960411008
11	221	136	1527.992710989
11	222	137	1518.0853641722
11	223	138	1508.1673267363
11	224	139	1498.2544441652
11	225	140	1488.9236320117
11	226	141	1479.7946805824
11	227	142	1470.6638690364
11	228	143	1461.5368422121
11	229	144	1452.3949730974
11	230	145	1443.7771013472
12	9	8	3.930963162637
12	10	9	5.9263112237273
12	11	10	7.8381960794392
12	12	11	9.790430662247
12	13	12	11.728100012452
12	14	13	13.629514704516
12	15	14	13.941568216505
12	16	15	13.881279769889
12	17	16	13.897868440901
12	18	17	13.925429278756
12	19	18	13.988464023101
12	20	19	13.968606978769
12	21	20	13.918509052745
12	22	21	13.924308654484
12	23	22	13.951645852409
12	24	23	13.87926841794
12	25	24	12.793519969494
12	26	25	11.84351296104
12	27	26	7.4038563960913
12	28	27	8.4727548549238
12	29	28	10.367830629347
12	30	29	12.18869854925
12	31	30	13.961659159465
12	32	31	13.954832898835
12	33	32	13.985199820679
12	34	33	13.894128147855
12	35	34	13.93747920732
12	36	35	13.922516686122
12	37	36	13.936551663636
12	38	37	13.899921349036
12	39	38	13.905686459227
12	40	39	13.974518650502
12	41	40	13.926188751743
12	42	41	13.91506882193
12	43	42	13.902084701743
12	44	43	13.906688486487
12	45	44	13.974945872892
12	46	45	13.897515056985
12	47	46	13.921723058985
12	48	47	13.971591069859
12	49	48	13.925448836959
12	50	49	13.871581884674
12	51	50	13.876423048137
12	52	51	13.873938687814
12	53	52	13.902598275633
12	54	53	13.87539361449
12	55	54	13.972987024514
12	56	55	13.957628285089
12	57	56	13.950985880545
12	58	57	13.943263569523
12	59	58	13.891897078918
12	60	59	13.874182712052
12	61	60	13.982985400616
12	62	61	13.927164004399
12	63	62	13.899862960158
12	64	63	13.960168966714
12	65	64	13.961850514959
12	67	65	13.962242161995
12	151	66	13.925234322341
12	152	67	13.991972472956
12	153	68	13.975208927125
12	154	69	13.946616810667
12	155	70	13.894927249895
12	156	71	13.997537077854
12	157	72	13.937148143742
12	158	73	13.949254455173
12	159	74	13.872561737457
12	160	75	13.941436031195
12	161	76	13.877849130908
12	162	77	12.619268954948
12	163	78	11.767659231051
12	164	79	7.2714327337119
12	165	80	8.4181567059542
12	166	81	10.470719517201
12	167	82	12.55852173912
12	168	83	13.888510530582
12	169	84	13.878650632019
12	170	85	13.945760953585
12	171	86	13.92992599302
12	172	87	13.882018232113
12	173	88	13.939167882889
12	174	89	13.977764886424
12	175	90	13.894534370045
12	176	91	13.966682291413
12	177	92	13.930039903398
12	178	93	13.975413697299
12	179	94	13.895980606813
12	180	95	13.916025194719
12	181	96	13.874023362922
12	182	97	13.903165594626
12	183	98	13.893743275884
12	184	99	13.891417812335
12	185	100	13.984807741477
12	186	101	13.97742042881
12	187	102	13.879850411245
12	188	103	13.943355088918
12	189	104	13.925188815154
12	190	105	13.917930745294
12	191	106	13.87493168453
12	192	107	13.921017476872
12	193	108	13.990385143103
12	194	109	13.935680139754
12	195	110	13.969463695099
12	196	111	13.889440936679
12	197	112	13.989204638558
12	198	113	13.933531372249
12	199	114	13.906106956222
12	200	115	13.986745798232
12	201	116	13.939984536606
12	202	117	13.872806662985
12	203	118	13.997721134285
12	204	119	13.972812251244
12	205	120	13.969063766259
12	206	121	13.964874761493
12	207	122	13.975246083164
12	208	123	13.989577336928
12	209	124	13.996372249553
12	210	125	13.968287243377
12	211	126	13.919875748248
12	212	127	13.969492799158
12	213	128	13.919411151982
12	214	129	13.928118166111
12	215	130	13.898230761196
12	216	131	13.903071351293
12	217	132	13.924851992729
12	218	133	13.945866813406
12	219	134	13.978033158435
12	220	135	13.870789043959
12	221	136	13.969389840765
12	222	137	13.882436068612
12	223	138	13.931265028701
12	224	139	13.979666585217
12	225	140	13.986425334169
12	226	141	13.913728709042
12	227	142	13.987764618078
12	228	143	13.874472264664
12	229	144	13.976509501764
12	230	145	13.877210935315
13	10	9	1.9953480610903
13	11	10	1.9118848557118
13	12	11	1.9522345828079
13	13	12	1.9376693502045
13	14	13	1.9014146920643
13	15	14	0.31205351198868
13	16	15	-0.060288446615449
13	17	16	0.016588671011849
13	18	17	0.027560837855562
13	19	18	0.063034744344186
13	20	19	-0.019857044331729
13	21	20	-0.050097926023881
13	22	21	0.0057996017392714
13	23	22	0.027337197924499
13	24	23	-0.072377434468363
13	25	24	-1.0857484484466
13	26	25	-0.95000700845353
13	27	26	-4.439656564949
13	28	27	1.0688984588324
13	29	28	1.8950757744233
13	30	29	1.8208679199032
13	31	30	1.7729606102145
13	32	31	-0.0068262606300422
13	33	32	0.03036692184396
13	34	33	-0.091071672823745
13	35	34	0.043351059465204
13	36	35	-0.01496252119774
13	37	36	0.014034977513365
13	38	37	-0.036630314600188
13	39	38	0.0057651101914225
13	40	39	0.068832191275433
13	41	40	-0.048329898759256
13	42	41	-0.01111992981285
13	43	42	-0.012984120186884
13	44	43	0.0046037847432316
13	45	44	0.068257386405021
13	46	45	-0.077430815906265
13	47	46	0.02420800199965
13	48	47	0.049868010873906
13	49	48	-0.046142232900019
13	50	49	-0.053866952285171
13	51	50	0.0048411634634249
13	52	51	-0.0024843603232867
13	53	52	0.028659587819128
13	54	53	-0.027204661143477
13	55	54	0.09759341002442
13	56	55	-0.015358739425428
13	57	56	-0.0066424045432356
13	58	57	-0.007722311022226
13	59	58	-0.051366490605288
13	60	59	-0.017714366866276
13	61	60	0.10880268856417
13	62	61	-0.055821396217215
13	63	62	-0.027301044240593
13	64	63	0.06030600655591
13	65	64	0.0016815482452515
13	67	65	0.00039164703572148
13	151	66	-0.037007839654107
13	152	67	0.066738150615711
13	153	68	-0.0167635458312
13	154	69	-0.028592116457874
13	155	70	-0.051689560771921
13	156	71	0.10260982795851
13	157	72	-0.060388934111689
13	158	73	0.01210631143069
13	159	74	-0.076692717715632
13	160	75	0.068874293738045
13	161	76	-0.063586900287774
13	162	77	-1.2585801759596
13	163	78	-0.85160972389679
13	164	79	-4.4962264973393
13	165	80	1.1467239722423
13	166	81	2.0525628112466
13	167	82	2.0878022219194
13	168	83	1.3299887914615
13	169	84	-0.0098598985630094
13	170	85	0.067110321565998
13	171	86	-0.015834960564971
13	172	87	-0.047907760906964
13	173	88	0.057149650775827
13	174	89	0.038597003535834
13	175	90	-0.0832305163797
13	176	91	0.072147921368014
13	177	92	-0.036642388014588
13	178	93	0.045373793900945
13	179	94	-0.079433090486564
13	180	95	0.020044587906449
13	181	96	-0.04200183179695
13	182	97	0.029142231703736
13	183	98	-0.0094223187421445
13	184	99	-0.0023254635487682
13	185	100	0.093389929141848
13	186	101	-0.0073873126669781
13	187	102	-0.097570017564577
13	188	103	0.063504677673336
13	189	104	-0.0181662737648
13	190	105	-0.0072580698598177
13	191	106	-0.042999060763977
13	192	107	0.0460857923422
13	193	108	0.069367666230537
13	194	109	-0.054705003348644
13	195	110	0.033783555345144
13	196	111	-0.080022758420091
13	197	112	0.09976370187942
13	198	113	-0.055673266309315
13	199	114	-0.027424416027497
13	200	115	0.08063884200994
13	201	116	-0.046761261625216
13	202	117	-0.067177873621695
13	203	118	0.12491447129985
13	204	119	-0.024908883040771
13	205	120	-0.0037484849849712
13	206	121	-0.0041890047653581
13	207	122	0.010371321670245
13	208	123	0.014331253764686
13	209	124	0.0067949126241729
13	210	125	-0.028085006175097
13	211	126	-0.048411495129113
13	212	127	0.049617050909436
13	213	128	-0.05008164717583
13	214	129	0.0087070141290315
13	215	130	-0.029887404914479
13	216	131	0.004840590097011
13	217	132	0.02178064143518
13	218	133	0.021014820677227
13	219	134	0.032166345028672
13	220	135	-0.10724411447532
13	221	136	0.098600796805696
13	222	137	-0.086953772152775
13	223	138	0.048828960089013
13	224	139	0.0484015565156
13	225	140	0.0067587489518335
13	226	141	-0.072696625126991
13	227	142	0.074035909036175
13	228	143	-0.113292353414
13	229	144	0.1020372371003
13	230	145	-0.099298566449432
14	10	9	4.2649508166984
14	11	10	5.1441608835298
14	12	11	6.2752675611406
14	13	12	7.3015557220543
14	14	13	8.2469806235914
14	15	14	3.0813423760871
14	16	15	1.825038103975
14	17	16	2.0839753981971
14	18	17	2.1237162576214
14	19	18	2.2501690272635
14	20	19	1.9687844028223
14	21	20	1.8624692368163
14	22	21	2.0505690853877
14	23	22	2.1258147014109
14	24	23	1.7844264067381
14	25	24	0.973
14	26	25	0.973
14	27	26	0.973
14	28	27	3.7575341079103
14	29	28	6.4482222684255
14	30	29	7.2140195323343
14	31	30	8.0005078452345
14	32	31	2.0112657729674
14	33	32	2.1396802881933
14	34	33	1.7230808185304
14	35	34	2.1780640158967
14	36	35	1.980720158986
14	37	36	2.0794954629949
14	38	37	1.9059152732614
14	39	38	2.0485298427513
14	40	39	2.2680539427787
14	41	40	1.8690933945628
14	42	41	1.9928741031296
14	43	42	1.9853406570184
14	44	43	2.0447410785649
14	45	44	2.2661688405632
14	46	45	1.7690384486571
14	47	46	2.1120645090544
14	48	47	2.2038504354464
14	49	48	1.8763684319447
14	50	49	1.8456610488087
14	51	50	2.0424227277346
14	52	51	2.0176736696174
14	53	52	2.1249196677245
14	54	53	1.9351566644326
14	55	54	2.3647248781457
14	56	55	1.9828454643184
14	57	56	2.0114971183472
14	58	57	2.007091813677
14	59	58	1.8558336695686
14	60	59	1.9667740746073
14	61	60	2.4037578966905
14	62	61	1.844036691971
14	63	62	1.9371616602798
14	64	63	2.2376623461065
14	65	64	2.0405988072341
14	67	65	2.0362986285583
14	151	66	1.9070037954822
14	152	67	2.2630700095878
14	153	68	1.9798474403324
14	154	69	1.9372818212763
14	155	70	1.8550225742329
14	156	71	2.3847397299678
14	157	72	1.8295794064806
14	158	73	2.0743518631084
14	159	74	1.7694347592009
14	160	75	2.2642644670172
14	161	76	1.8137074180615
14	162	77	0.973
14	163	78	0.973
14	164	79	0.973
14	165	80	3.8976468345674
14	166	81	6.9006815444997
14	167	82	8.2177466262902
14	168	83	6.4791082854315
14	169	84	1.9934802295803
14	170	85	2.2588493406892
14	171	86	1.9785202232272
14	172	87	1.866522840978
14	173	88	2.2246081928829
14	174	89	2.1665886194004
14	175	90	1.7493699939429
14	176	91	2.2782826967557
14	177	92	1.908677970281
14	178	93	2.1891507767845
14	179	94	1.7622054562569
14	180	95	2.0974873772285
14	181	96	1.8855500369507
14	182	97	2.1265985206215
14	183	98	1.996444163955
14	184	99	2.0199719555639
14	185	100	2.3520461315502
14	186	101	2.0116492969017
14	187	102	1.7002051043368
14	188	103	2.2464484993577
14	189	104	1.9702312999156
14	190	105	2.0061116329298
14	191	106	1.8822985255134
14	192	107	2.1853876837731
14	193	108	2.2717476857686
14	194	109	1.8485404127022
14	195	110	2.1494565898783
14	196	111	1.7596915426568
14	197	112	2.3740841163565
14	198	113	1.8450980460308
14	199	114	1.9373428051763
14	200	115	2.3093068646242
14	201	116	1.8756103342285
14	202	117	1.801266530449
14	203	118	2.4600067714863
14	204	119	1.9521828081964
14	205	120	2.0230591338095
14	206	121	2.0211517866372
14	207	122	2.0712422583981
14	208	123	2.0860967845469
14	209	124	2.0613957345966
14	210	125	1.9410549606526
14	211	126	1.8682495009413
14	212	127	2.2027656072772
14	213	128	1.8626049064481
14	214	129	2.0607221761414
14	215	130	1.9283433302684
14	216	131	2.0451622066605
14	217	132	2.104255852395
14	218	133	2.1039370116731
14	219	134	2.1449555846718
14	220	135	1.667158428581
14	221	136	2.3676636444222
14	222	137	1.7359255343627
14	223	138	2.195756625819
14	224	139	2.1998335468148
14	225	140	2.0602380680141
14	226	141	1.7862616361573
14	227	142	2.287172226932
14	228	143	1.6472135697639
14	229	144	2.3801366133394
14	230	145	1.694217973218
15	11	10	2414.8652957816
15	12	11	2411.9402292009
15	13	12	2407.1594214574
15	14	13	2402.0350675649
15	15	14	2395.5354035812
15	16	15	2387.5598131203
15	17	16	2378.2983909701
15	18	17	2368.4972038758
15	19	18	2358.719633554
15	20	19	2348.9248444787
15	21	20	2339.614370346
15	22	21	2334.1997176057
15	23	22	2339.4193692133
15	24	23	2350.023330241
15	25	24	2360.3662725991
15	26	25	2373.90233667
15	27	26	2387.7152259793
15	28	27	2400.5914429313
15	29	28	2412.9398871803
15	30	29	2421.7139854309
15	31	30	2429.0882121673
15	32	31	2431.6639768599
15	33	32	2433.4302155024
15	34	33	2435.4611475593
15	35	34	2437.5533698815
15	36	35	2438.7684759141
15	37	36	2439.671540139
15	38	37	2440.6813741141
15	39	38	2441.6917844916
15	40	39	2442.7022041357
15	41	40	2443.7124593587
15	42	41	2444.7229332504
15	43	42	2445.7337078364
15	44	43	2446.7459111849
15	45	44	2447.757486716
15	46	45	2448.7683903823
15	47	46	2449.7777371067
15	48	47	2450.5176811377
15	49	48	2449.4057673637
15	50	49	2448.2921364765
15	51	50	2447.1808208324
15	52	51	2446.0691226661
15	53	52	2444.9566500478
15	54	53	2443.8447802094
15	55	54	2442.731477023
15	56	55	2441.6197022425
15	57	56	2440.5080080784
15	58	57	2439.5670555097
15	59	58	2438.6556009268
15	60	59	2437.5062560235
15	61	60	2431.5722499692
15	62	61	2420.527699944
15	63	62	2407.2382113171
15	64	63	2393.3269784888
15	65	64	2379.3955530388
15	67	65	2365.4745847809
15	151	66	2351.529199079
15	152	67	2337.6079130118
15	153	68	2323.6725767179
15	154	69	2309.7385225614
15	155	70	2295.8080973643
15	156	71	2281.8952010303
15	157	72	2267.9654732505
15	158	73	2254.0466482575
15	159	74	2240.2066991659
15	160	75	2226.4173803013
15	161	76	2212.7662110776
15	162	77	2199.5729332234
15	163	78	2186.3872113026
15	164	79	2173.6474240444
15	165	80	2162.5677132215
15	166	81	2151.8935926168
15	167	82	2144.3555114834
15	168	83	2138.2247302437
15	169	84	2131.6834204124
15	170	85	2123.8660908783
15	171	86	2114.7614731657
15	172	87	2105.2411713355
15	173	88	2095.7108763196
15	174	89	2086.1925951599
15	175	90	2076.6852548176
15	176	91	2067.1594253494
15	177	92	2057.632607371
15	178	93	2048.1022976771
15	179	94	2038.1078835877
15	180	95	2028.1127831832
15	181	96	2018.1190521012
15	182	97	2008.1323748323
15	183	98	1998.1359312494
15	184	99	1988.1404383939
15	185	100	1978.1503242605
15	186	101	1968.1436147648
15	187	102	1958.1542866336
15	188	103	1948.1541734936
15	189	104	1938.1578784987
15	190	105	1928.3954472626
15	191	106	1918.6526167148
15	192	107	1908.9362453276
15	193	108	1899.2078825037
15	194	109	1889.4688579363
15	195	110	1879.7255672845
15	196	111	1870.0024786359
15	197	112	1860.269699625
15	198	113	1850.5221751429
15	199	114	1840.7925010396
15	200	115	1830.8378176877
15	201	116	1820.7311530442
15	202	117	1810.6303230971
15	203	118	1800.6606490531
15	204	119	1790.7039333233
15	205	120	1780.7547139085
15	206	121	1770.812602922
15	207	122	1760.8594679676
15	208	123	1750.9080659115
15	209	124	1740.9666883679
15	210	125	1731.0134604381
15	211	126	1721.0679137585
15	212	127	1711.106192503
15	213	128	1701.154573986
15	214	129	1691.2009749087
15	215	130	1681.2442038202
15	216	131	1671.2936874417
15	217	132	1661.3322250254
15	218	133	1651.3811698123
15	219	134	1641.416397995
15	220	135	1631.4613450909
15	221	136	1621.5086758134
15	222	137	1611.7093718785
15	223	138	1601.8842268493
15	224	139	1592.0648301088
15	225	140	1582.2417613352
15	226	141	1572.4214826268
15	227	142	1562.5983559663
15	228	143	1552.20593978
15	229	144	1541.6515870237
15	230	145	1531.1035423469
16	11	10	1578.4548774119
16	12	11	1579.5289465943
16	13	12	1581.5559881236
16	14	13	1586.7462526578
16	15	14	1593.3295168448
16	16	15	1601.4076912217
16	17	16	1610.7882359559
16	18	17	1620.7154882178
16	19	18	1630.6188199436
16	20	19	1640.5395918936
16	21	20	1650.8881406859
16	22	21	1663.2272230769
16	23	22	1674.9756418047
16	24	23	1683.991763521
16	25	24	1693.3192880014
16	26	25	1695.9020503219
16	27	26	1697.6139621651
16	28	27	1698.8314944636
16	29	28	1699.9991223291
16	30	29	1700.8287719106
16	31	30	1701.8119543158
16	32	31	1710.77248332
16	33	32	1722.3952316754
16	34	33	1735.7597972872
16	35	34	1749.5276840087
16	36	35	1763.4065813264
16	37	36	1777.3270081691
16	38	37	1791.2142166747
16	39	38	1805.1093518483
16	40	39	1819.0046144547
16	41	40	1832.8976159496
16	42	41	1846.7936245678
16	43	42	1860.6937683271
16	44	43	1874.6135603888
16	45	44	1888.5247187214
16	46	45	1902.4266375881
16	47	46	1916.3071454344
16	48	47	1930.2163243052
16	49	48	1944.0944528161
16	50	49	1957.9940131316
16	51	50	1971.8646762054
16	52	51	1985.7401136523
16	53	52	1999.6252172682
16	54	53	2013.5027974071
16	55	54	2027.3982675895
16	56	55	2041.2746612821
16	57	56	2055.1500487765
16	58	57	2069.0339985425
16	59	58	2082.9232102502
16	60	59	2096.7668430749
16	61	60	2109.1502521159
16	62	61	2117.3046830418
16	63	62	2120.90069908
16	64	63	2120.4308352731
16	65	64	2119.9602894429
16	67	65	2119.4900968131
16	151	66	2119.0190794626
16	152	67	2118.5488760993
16	153	68	2118.0781981768
16	154	69	2117.6075635599
16	155	70	2117.1370515134
16	156	71	2116.6671315199
16	157	72	2116.1966430303
16	158	73	2115.7265227912
16	159	74	2114.4884428075
16	160	75	2112.5330108125
16	161	76	2109.9530747626
16	162	77	2105.4785292046
16	163	78	2101.0065462673
16	164	79	2095.5423098914
16	165	80	2089.0198590728
16	166	81	2082.7361728121
16	167	82	2078.2986234706
16	168	83	2074.2687771348
16	169	84	2067.4674197342
16	170	85	2059.1224117205
16	171	86	2049.4032221371
16	172	87	2039.2402892942
16	173	88	2029.0666887136
16	174	89	2018.9059129385
16	175	90	2008.756816498
16	176	91	1998.5879828949
16	177	92	1988.4180940567
16	178	93	1978.2444778075
16	179	94	1968.5258373758
16	180	95	1958.8096110467
16	181	96	1949.0947158355
16	182	97	1939.3866776275
16	183	98	1929.6691455971
16	184	99	1919.9525377667
16	185	100	1910.2411585869
16	186	101	1900.5136470739
16	187	102	1890.8030319661
16	188	103	1881.0819327626
16	189	104	1871.3645451739
16	190	105	1861.3857453149
16	191	106	1851.4018749222
16	192	107	1841.445118295
16	193	108	1831.4760735603
16	194	109	1821.4961033091
16	195	110	1811.5117614288
16	196	111	1801.5481213536
16	197	112	1791.5745511744
16	198	113	1781.5858707186
16	199	114	1771.6154822633
16	200	115	1761.8489033254
16	201	116	1752.2501482666
16	202	117	1742.6569346823
16	203	118	1732.9307294944
16	204	119	1723.1730233738
16	205	120	1713.4226637352
16	206	121	1703.6792704454
16	207	122	1693.9250735296
16	208	123	1684.1725748749
16	209	124	1674.4299003687
16	210	125	1664.675612336
16	211	126	1654.9288520236
16	212	127	1645.1662404248
16	213	128	1635.4135296363
16	214	129	1625.6588778738
16	215	130	1615.9011175008
16	216	131	1606.1494868211
16	217	132	1596.3871288886
16	218	133	1586.6349701444
16	219	134	1576.8693689574
16	220	135	1567.1132924259
16	221	136	1557.3595518796
16	222	137	1547.5940613188
16	223	138	1537.676031515
16	224	139	1527.7638043435
16	225	140	1517.8478704235
16	226	141	1507.9347529467
16	227	142	1498.0187605927
16	228	143	1488.7174936254
16	229	144	1479.5879217274
16	230	145	1470.4638063516
17	12	11	4.0076977833542
17	13	12	6.1677344774264
17	14	13	8.1549676716625
17	15	14	10.178332106699
17	16	15	12.262859039094
17	17	16	13.909239285488
17	18	17	13.972104677679
17	19	18	13.964405047395
17	20	19	13.904001857305
17	21	20	13.959390929798
17	22	21	13.878038117993
17	23	22	13.946876353603
17	24	23	13.944667257406
17	25	24	13.919344021892
17	26	25	13.927560248445
17	27	26	13.871213583788
17	28	27	12.691334807668
17	29	28	11.253789109264
17	30	29	6.8021452137647
17	31	30	8.5806848426844
17	32	31	10.511503565412
17	33	32	12.634297992723
17	34	33	13.965718502484
17	35	34	13.984844662666
17	36	35	13.956789441942
17	37	36	13.956542154332
17	38	37	13.917345386401
17	39	38	13.978046209081
17	40	39	13.982312166321
17	41	40	13.915473192113
17	42	41	13.879970237834
17	43	42	13.897895857247
17	44	43	13.999869057706
17	45	44	13.978634591533
17	46	45	13.942230677728
17	47	46	13.955766034983
17	48	47	13.950300372976
17	49	48	13.917481608128
17	50	49	13.942320762996
17	51	50	13.893100212866
17	52	51	13.91633811252
17	53	52	13.928179549885
17	54	53	13.968941585214
17	55	54	13.947614409933
17	56	55	13.993828555658
17	57	56	13.915365449623
17	58	57	13.876728287677
17	59	58	13.918426910553
17	60	59	13.974088552413
17	61	60	13.92781890474
[...]
193	224	139	1.8274363709141
193	225	140	-0.046688134782016
193	226	141	-0.048798823649994
193	227	142	0.1169963199459
193	228	143	-0.11339575390099
193	229	144	0.11620194213232
193	230	145	-0.053981735985726
194	202	117	4.6709252960266
194	203	118	5.1507486498894
194	204	119	6.2126769618753
194	205	120	7.1817747034554
194	206	121	5.2951581330384
194	207	122	2.2725136063109
194	208	123	1.7667377238182
194	209	124	1.9338551564235
194	210	125	2.1496130768417
194	211	126	1.8035522187455
194	212	127	1.9360505445216
194	213	128	2.105471972606
194	214	129	1.9506655590722
194	215	130	1.7118037126666
194	216	131	2.2018923378261
194	217	132	1.3569258541834
194	218	133	0.973
194	219	134	2.4966722655359
194	220	135	0.973
194	221	136	4.9352587533286
194	222	137	6.3285885202158
194	223	138	7.2407188399811
194	224	139	8.1912732447517
194	225	140	1.8748341382945
194	226	141	1.8633541792936
194	227	142	2.433191564832
194	228	143	1.6475409277925
194	229	144	2.4308782715148
194	230	145	1.851866833311
195	203	118	2414.8421889067
195	204	119	2411.8412578211
195	205	120	2407.2366500119
195	206	121	2402.4211110438
195	207	122	2396.1711624342
195	208	123	2388.5172655507
195	209	124	2380.3446820602
195	210	125	2372.1786240462
195	211	126	2364.0029046416
195	212	127	2355.8361087854
195	213	128	2347.6843740067
195	214	129	2339.9625909684
195	215	130	2334.6668089847
195	216	131	2335.5093247773
195	217	132	2344.3975986965
195	218	133	2353.0587686084
195	219	134	2361.8679401967
195	220	135	2373.3615957847
195	221	136	2384.8783052496
195	222	137	2396.4453164807
195	223	138	2408.0088912965
195	224	139	2418.4757125878
195	225	140	2425.7894773388
195	226	141	2431.0435443841
195	227	142	2432.681963033
195	228	143	2434.6296534654
195	229	144	2436.7245888909
195	230	145	2438.4177978868
196	203	118	1578.463362135
196	204	119	1579.5652883686
196	205	120	1581.4777662372
196	206	121	1586.3552437974
196	207	122	1592.6855807118
196	208	123	1600.4379238132
196	209	124	1608.7156249899
196	210	125	1616.9867167575
196	211	126	1625.2675941838
196	212	127	1633.5394332837
196	213	128	1641.7960175881
196	214	129	1650.4423640911
196	215	130	1660.4142175335
196	216	131	1671.5538882222
196	217	132	1678.9958614903
196	218	133	1686.72919787
196	219	134	1694.1032881225
196	220	135	1695.8212266378
196	221	136	1697.3057919107
196	222	137	1698.4394505201
196	223	138	1699.5328637389
196	224	139	1700.5225715889
196	225	140	1701.0807492454
196	226	141	1706.6897221543
196	227	142	1717.4713499593
196	228	143	1730.2881433554
196	229	144	1744.0738836769
196	230	145	1757.8902895702
197	204	119	4.099163855175
197	205	120	5.8564154620892
197	206	121	7.7936893133242
197	207	122	9.7622672545495
197	208	123	11.652818312387
197	209	124	11.633918032149
197	210	125	11.555939600587
197	211	126	11.572145621903
197	212	127	11.649701984381
197	213	128	11.630712793212
197	214	129	11.600356456263
197	215	130	11.655971777454
197	216	131	11.62142197209
197	217	132	11.570913617898
197	218	133	11.642839388278
197	219	134	11.56057646975
197	220	135	11.594562031893
197	221	136	11.621860965396
197	222	137	11.574098124628
197	223	138	11.672098251936
197	224	139	8.7468889125161
197	225	140	7.7968889125161
197	226	141	9.770374664823
197	227	142	11.854988474595
197	228	143	13.783054530363
197	229	144	13.925680386429
197	230	145	13.933389595561
198	205	120	1.7572516069142
198	206	121	1.9372738512349
198	207	122	1.9685779412254
198	208	123	1.8905510578377
198	209	124	-0.018900280238595
198	210	125	-0.077978431561496
198	211	126	0.016206021315885
198	212	127	0.077556362478061
198	213	128	-0.018989191169384
198	214	129	-0.030356336948463
198	215	130	0.055615321190563
198	216	131	-0.034549805363641
198	217	132	-0.050508354192134
198	218	133	0.071925770379602
198	219	134	-0.082262918527704
198	220	135	0.033985562142917
198	221	136	0.027298933502752
198	222	137	-0.04776284076739
198	223	138	0.098000127307605
198	224	139	-2.9252093394197
198	225	140	-0.95
198	226	141	1.9734857523069
198	227	142	2.0846138097718
198	228	143	1.9280660557677
198	229	144	0.14262585606622
198	230	145	0.0077092091320079
199	205	120	3.8912469078023
199	206	121	5.168440869592
199	207	122	6.2983635323085
199	208	123	7.1275942011634
199	209	124	1.7636904676849
199	210	125	1.5928470200576
199	211	126	1.8565946533158
199	212	127	2.0357824135269
199	213	128	1.763181034138
199	214	129	1.7289415295627
199	215	130	1.9748036603367
199	216	131	1.7188457480012
199	217	132	1.6704456390899
199	218	133	2.0192661151328
199	219	134	1.5812182319336
199	220	135	1.9082782994619
199	221	136	1.8921098856232
199	222	137	1.678336907891
199	223	138	2.0956332165739
199	224	139	0.973
199	225	140	0.973
199	226	141	6.3143715461648
199	227	142	7.7916484446607
199	228	143	8.4212677898141
199	229	144	2.5099119729512
199	230	145	2.0579204673201
200	206	121	2414.8587667713
200	207	122	2411.9356476427
200	208	123	2407.3229182976
200	209	124	2402.4784541581
200	210	125	2396.261341464
200	211	126	2388.6892881746
200	212	127	2380.1052247776
200	213	128	2371.4705308621
200	214	129	2362.8369877451
200	215	130	2354.2115901944
200	216	131	2345.5864398344
200	217	132	2337.7150731951
200	218	133	2333.9824690933
200	219	134	2339.2355641905
200	220	135	2348.656755153
200	221	136	2357.7701254756
200	222	137	2368.8062111773
200	223	138	2380.9773796396
200	224	139	2393.1739807205
200	225	140	2404.2107271166
200	226	141	2414.9667637429
200	227	142	2422.97381324
200	228	143	2430.3004373846
200	229	144	2431.9956275275
200	230	145	2433.8132317876
201	206	121	1578.45727483
201	207	122	1579.5306289187
201	208	123	1581.3903883481
201	209	124	1586.2971631223
201	210	125	1592.5942417784
201	211	126	1600.2636885941
201	212	127	1608.9581622276
201	213	128	1617.7039176021
201	214	129	1626.4485073769
201	215	130	1635.1848468138
201	216	131	1643.9209358813
201	217	132	1653.3195366496
201	218	133	1664.678354512
201	219	134	1674.8272081958
201	220	135	1682.7593518784
201	221	136	1690.9780174997
201	222	137	1695.140340508
201	223	138	1696.8414947074
201	224	139	1698.1301238788
201	225	140	1699.1737219524
201	226	141	1700.1907770429
201	227	142	1700.9177041072
201	228	143	1703.0598380724
201	229	144	1712.9549133489
201	230	145	1724.9156735856
202	207	122	3.9084870939956
202	208	123	5.874779334117
202	209	124	7.749979970462
202	210	125	9.7091771264302
202	211	126	11.708101021959
202	212	127	12.274391028838
202	213	128	12.307808207281
202	214	129	12.308748868535
202	215	130	12.241907001616
202	216	131	12.243169415198
202	217	132	12.250760608947
202	218	133	12.307411877365
202	219	134	12.258549885189
202	220	135	12.282287218318
202	221	136	12.244854954549
202	222	137	12.337866502417
202	223	138	12.287467966704
202	224	139	12.319318765067
202	225	140	10.681669512934
202	226	141	10.420187867503
202	227	142	6.6604631896903
202	228	143	9.032487251738
202	229	144	11.040383053774
202	230	145	12.974772715911
203	208	123	1.9662922401214
203	209	124	1.875200636345
203	210	125	1.9591971559683
203	211	126	1.998923895529
203	212	127	0.5662900068783
203	213	128	0.033417178443633
203	214	129	0.00094066125340753
203	215	130	-0.066841866918839
203	216	131	0.0012624135822978
203	217	132	0.0075911937491036
203	218	133	0.056651268417482
203	219	134	-0.048861992175226
203	220	135	0.02373733312823
203	221	136	-0.037432263768279
203	222	137	0.09301154786721
203	223	138	-0.050398535712157
203	224	139	0.031850798362866
203	225	140	-1.6376492521333
203	226	141	-0.26148164543063
203	227	142	-3.759724677813
203	228	143	2.3720240620477
203	229	144	2.0078958020359
203	230	145	1.9343896621373
204	208	123	4.1960492258214
204	209	124	5.0292565623112
204	210	125	6.2472702646947
204	211	126	7.4633298515258
204	212	127	3.5481083937277
204	213	128	1.9750824933818
204	214	129	1.8788363237823
204	215	130	1.6728266331179
204	216	131	1.8738683837751
204	217	132	1.8932377386483
204	218	133	2.0439578597693
204	219	134	1.7271716877057
204	220	135	1.9439239992465
204	221	136	1.7598318548831
204	222	137	2.1552389875809
204	223	138	1.7248831913111
204	224	139	1.9715636298613
204	225	140	0.973
204	226	141	0.973
204	227	142	0.973
204	228	143	6.7772950816101
204	229	144	7.1093767793898
204	230	145	7.9863623358215
205	209	124	2414.8563562874
205	210	125	2411.8709679041
205	211	126	2407.1818897024
205	212	127	2402.2312804888
205	213	128	2396.0103943149
205	214	129	2388.4985765318
205	215	130	2379.6307286884
205	216	131	2369.8595297664
205	217	132	2360.0804125357
205	218	133	2350.3101462112
205	219	134	2340.8284313077
205	220	135	2334.5169715756
205	221	136	2337.8942056543
205	222	137	2348.5714077116
205	223	138	2358.8942487445
205	224	139	2371.5561207605
205	225	140	2384.0070775808
205	226	141	2395.8574311394
205	227	142	2405.8457594087
205	228	143	2414.8906237447
205	229	144	2422.8900118608
205	230	145	2430.2828928635
206	209	124	1578.4581599468
206	210	125	1579.5543789808
206	211	126	1581.5332308868
206	212	127	1586.5475159977
206	213	128	1592.8484166684
206	214	129	1600.4568532147
206	215	130	1609.4387613973
206	216	131	1619.335639772
206	217	132	1629.2405383028
206	218	133	1639.1364720855
206	219	134	1649.3339536963
206	220	135	1661.3165965574
206	221	136	1673.7439805111
206	222	137	1682.6823834181
206	223	138	1691.9917800194
206	224	139	1695.5513651427
206	225	140	1697.2020963756
206	226	141	1698.3838620353
206	227	142	1699.3283251738
206	228	143	1700.1835774975
206	229	144	1700.9128514668
206	230	145	1703.0076324241
207	210	125	4.076561782019
207	211	126	6.0300077411707
207	212	127	7.8709276547691
207	213	128	9.5823817496689
207	214	129	11.552415186971
207	215	130	13.489580010598
207	216	131	13.945355199496
207	217	132	13.907006167264
207	218	133	13.871612211748
207	219	134	13.951321379601
207	220	135	13.892443370023
207	221	136	13.976141884367
207	222	137	13.872301705973
207	223	138	13.729418963554
207	224	139	13.470163912276
207	225	140	11.999747868723
207	226	141	11.786958645297
207	227	142	8.6819771291236
207	228	143	9.4806880398793
207	229	144	6.7090824954398
207	230	145	8.99968413834
208	211	126	1.9534459591517
208	212	127	1.8409199135983
208	213	128	1.7114540948998
208	214	129	1.9700334373023
208	215	130	1.9371648236271
208	216	131	0.45577518889811
208	217	132	-0.038349032232073
208	218	133	-0.035393955516628
208	219	134	0.079709167852998
208	220	135	-0.058878009577748
208	221	136	0.083698514343705
208	222	137	-0.10384017839329
208	223	138	-0.14288274241983
208	224	139	-0.25925505127756
208	225	140	-1.4704160435526
208	226	141	-0.21278922342674
208	227	142	-3.1049815161731
208	228	143	0.79871091075566
208	229	144	-2.7716055444395
208	230	145	2.2906016429001
209	211	126	4.2599522117348
209	212	127	5.0267680881708
209	213	128	5.605889218242
209	214	129	7.2945483450565
209	215	130	8.2851992498627
209	216	131	3.5650381160978
209	217	132	1.9008136162889
209	218	133	1.9074200449959
209	219	134	2.3018680303928
209	220	135	1.8307333206411
209	221	136	2.3183205318695
209	222	137	1.6786530916885
209	223	138	1.5386104345728
209	224	139	1.1439616197708
209	225	140	0.973
209	226	141	1.2254204464214
209	227	142	0.973
209	228	143	3.471000975776
209	229	144	0.973
209	230	145	6.5796224728786
210	212	127	2414.8836791968
210	213	128	2411.9936076934
210	214	129	2407.3079390592
210	215	130	2402.2657910006
210	216	131	2395.820086294
210	217	132	2387.9772149422
210	218	133	2379.1957200202
210	219	134	2370.3831985454
210	220	135	2361.5565889121
210	221	136	2352.7425568126
210	222	137	2343.9293670645
210	223	138	2336.1073660735
210	224	139	2333.9088620376
210	225	140	2341.6948745142
210	226	141	2351.1771932673
210	227	142	2360.5018049735
210	228	143	2372.7091618147
210	229	144	2385.1383352049
210	230	145	2397.6234700523
211	212	127	1578.4481271179
211	213	128	1579.5093462905
211	214	129	1581.4055602532
211	215	130	1586.5125616034
211	216	131	1593.0411724756
211	217	132	1600.9849206787
211	218	133	1609.8793652486
211	219	134	1618.8052354427
211	220	135	1627.7453749999
211	221	136	1636.6727752481
211	222	137	1645.5993223106
211	223	138	1655.3776519923
211	224	139	1667.5436392101
211	225	140	1676.8132491782
211	226	141	1685.0323460996
211	227	142	1693.441514492
211	228	143	1695.7237083642
211	229	144	1697.3367412789
211	230	145	1698.5508528082
212	213	128	3.9824005470828
212	214	129	6.0836882796402
212	215	130	7.9552716536967
212	216	131	10.100705959763
212	217	132	11.975236348899
212	218	133	12.585008563524
212	219	134	12.579582694048
212	220	135	12.549659891423
212	221	136	12.505895157306
212	222	137	12.577413623658
212	223	138	12.55013593389
212	224	139	12.498767518877
212	225	140	12.612673348718
212	226	141	12.541617096482
212	227	142	12.492684076397
212	228	143	12.564390132815
212	229	144	12.541511615949
212	230	145	12.544113034914
213	214	129	2.1012877325574
213	215	130	1.8715833740565
213	216	131	2.145434306066
213	217	132	1.8745303891366
213	218	133	0.60977221462432
213	219	134	-0.0054258694755838
213	220	135	-0.029922802625224
213	221	136	-0.043764734116849
213	222	137	0.071518466351554
213	223	138	-0.027277689767072
213	224	139	-0.051368415013421
213	225	140	0.11390582984081
213	226	141	-0.071056252236014
213	227	142	-0.048933020085096
213	228	143	0.071706056417899
213	229	144	-0.022878516865894
213	230	145	0.0026014189654955
214	214	129	4.5051202836859
214	215	130	5.1285093364908
214	216	131	6.9150227279757
214	217	132	7.2562844975478
214	218	133	3.7506657344486
214	219	134	1.8842851966478
214	220	135	1.8074814899672
214	221	136	1.7620638389122
214	222	137	2.1173186250485
214	223	138	1.8155221628539
214	224	139	1.7385825883627
214	225	140	2.2500203653912
214	226	141	1.6824736096304
214	227	142	1.7454335193504
214	228	143	2.1164635588703
214	229	144	1.8280831418429
214	230	145	1.9053369019962
215	215	130	2414.8720430041
215	216	131	2412.0316223054
215	217	132	2407.553123147
215	218	133	2402.9272228047
215	219	134	2396.966894972
215	220	135	2389.6715151991
215	221	136	2381.0820835447
215	222	137	2372.107149969
215	223	138	2363.1110634515
215	224	139	2354.131922456
215	225	140	2345.141824697
215	226	141	2337.0082265893
215	227	142	2333.8669623059
215	228	143	2340.9192091275
215	229	144	2350.6221051021
215	230	145	2360.1202451003
216	215	130	1578.4523998667
216	216	131	1579.4953875234
216	217	132	1581.1572225504
216	218	133	1585.8426223081
216	219	134	1591.8796132756
216	220	135	1599.2688279347
216	221	136	1607.9687388744
216	222	137	1617.0591101516
216	223	138	1626.1709064441
216	224	139	1635.2655392578
216	225	140	1644.3712697634
216	226	141	1654.2244103197
216	227	142	1666.3147006687
216	228	143	1676.1868527317
216	229	144	1684.5317536891
216	230	145	1693.0974142412
217	216	131	3.8414571175372
217	217	132	5.5578511554349
217	218	133	7.4139909626192
217	219	134	9.3204866696705
217	220	135	11.237977716007
217	221	136	12.846164658443
217	222	137	12.816154700006
217	223	138	12.766615749
217	224	139	12.777636974313
217	225	140	12.761643238318
217	226	141	12.785419277871
217	227	142	12.740313014687
217	228	143	12.822930420973
217	229	144	12.800795275193
217	230	145	12.778937269457
218	217	132	1.7163940378977
218	218	133	1.8561398071842
218	219	134	1.9064957070514
218	220	135	1.9174910463369
218	221	136	1.6081869424355
218	222	137	-0.030009958436713
218	223	138	-0.049538951006252
218	224	139	0.011021225312724
218	225	140	-0.015993735995144
218	226	141	0.02377603955334
218	227	142	-0.045106263183989
218	228	143	0.0826174062863
218	229	144	-0.022135145780631
218	230	145	-0.021858005735558
219	217	132	3.6929808668935
219	218	133	4.8217960970344
219	219	134	5.916859759892
219	220	135	6.9764723776048
219	221	136	6.9043625184088
219	222	137	1.8300267461894
219	223	138	1.7656630139957
219	224	139	1.9530509936293
219	225	140	1.8684281758352
219	226	141	1.993100658442
219	227	142	1.7771327526696
219	228	143	2.1786685008369
219	229	144	1.852992289432
219	230	145	1.8519170616745
220	218	133	2414.8835599658
220	219	134	2412.0155197452
220	220	135	2407.3564201684
220	221	136	2402.3161576297
220	222	137	2395.9097706537
220	223	138	2388.1586359171
220	224	139	2379.6386094847
220	225	140	2371.1156633586
220	226	141	2362.5911950885
220	227	142	2354.0661823745
220	228	143	2345.5368911185
220	229	144	2337.7698449838
220	230	145	2333.9988551341
221	218	133	1578.4481708985
221	219	134	1579.5013002995
221	220	135	1581.3564555692
221	221	136	1586.4615471466
221	222	137	1592.950334575
221	223	138	1600.8011662252
221	224	139	1609.4307792364
221	225	140	1618.0633494947
221	226	141	1626.6974614756
221	227	142	1635.3321249038
221	228	143	1643.9711219044
221	229	144	1653.2494202349
221	230	145	1664.4462189348
222	219	134	4.0076643208797
222	220	135	5.9565067090104
222	221	136	8.0938856706662
222	222	137	9.8994638825777
222	223	138	11.951166485991
222	224	139	12.133273773763
222	225	140	12.086446646008
222	226	141	12.126803846724
222	227	142	12.188331644776
222	228	143	12.133200977748
222	229	144	12.091609875559
222	230	145	12.173031411396
223	220	135	1.9488423881307
223	221	136	2.1373789616558
223	222	137	1.8055782119115
223	223	138	2.0517026034137
223	224	139	0.18210728777109
223	225	140	-0.046827127754224
223	226	141	0.040357200715226
223	227	142	0.061527798052412
223	228	143	-0.055130667027552
223	229	144	-0.04159110218985
223	230	145	0.081421535836999
224	220	135	4.2144634856684
224	221	136	5.718659805645
224	222	137	5.9848664785938
224	223	138	7.7535917575433
224	224	139	2.3928211429169
224	225	140	1.7197560547902
224	226	141	1.9776881605932
224	227	142	2.0459612861693
224	228	143	1.6991036221722
224	229	144	1.7354141682475
224	230	145	2.1027294753541
225	221	136	2414.8606275192
225	222	137	2411.7675365397
225	223	138	2406.9670441359
225	224	139	2401.6902585772
225	225	140	2395.0413960395
225	226	141	2387.1206568544
225	227	142	2377.8074452318
225	228	143	2368.0261674369
225	229	144	2358.2360770169
225	230	145	2348.4504978438
226	221	136	1578.4565915735
226	222	137	1579.5923584383
226	223	138	1581.7508398471
226	224	139	1587.0954966601
226	225	140	1593.8298784271
226	226	141	1601.8524960177
226	227	142	1611.2854963532
226	228	143	1621.1925832378
226	229	144	1631.1085960977
226	230	145	1641.020039686
227	222	137	4.2020141742253
227	223	138	6.2547166510895
227	224	139	8.4094587924858
227	225	140	10.337069441589
227	226	141	12.133498071296
227	227	142	13.874075698839
227	228	143	13.885680944896
227	229	144	13.889717270082
227	230	145	13.893452649817
228	223	138	2.0527024768642
228	224	139	2.1547421413963
228	225	140	1.9276106491033
228	226	141	1.7964286297071
228	227	142	1.7405776275424
228	228	143	0.011605246057734
228	229	144	0.0040363251860267
228	230	145	0.0037353797350068
229	223	138	4.5285485072937
229	224	139	5.9375826710348
229	225	140	6.512827625732
229	226	141	7.1134058964697
229	227	142	7.8458806320652
229	228	143	2.0660101570186
229	229	144	2.041095532179
229	230	145	2.0404714691404
230	224	139	2414.8833766948
230	225	140	2411.9736998194
230	226	141	2407.3316752824
230	227	142	2402.3550032958
230	228	143	2396.1245509364
230	229	144	2388.5209144219
230	230	145	2380.2984044222
231	224	139	1578.4482381949
231	225	140	1579.5166563578
231	226	141	1581.381518729
231	227	142	1586.4222018383
231	228	143	1592.7327917377
231	229	144	1600.4342280095
231	230	145	1608.7624978619
232	225	140	3.9728593152307
232	226	141	5.9612720722227
232	227	142	7.8485327200021
232	228	143	9.7398787253757
232	229	144	11.718346724879
232	230	145	11.738617610756
233	226	141	1.988412756992
233	227	142	1.8872606477793
233	228	143	1.8913460053736
233	229	144	1.9784679995035
233	230	145	0.020270885876625
234	226	141	4.2738278402126
234	227	142	5.1030219065469
234	228	143	6.1047844628984
234	229	144	7.4113795116961
234	230	145	1.8830424898429
235	227	142	2414.8344336114
235	228	143	2411.9458734991
235	229	144	2407.4483631061
235	230	145	2402.6311191204
236	227	142	1578.4662098391
236	228	143	1579.5268740375
236	229	144	1581.2633300396
236	230	145	1586.1425345475
237	228	143	3.8298766437329
237	229	144	5.7609484555658
237	230	145	7.8167959182237
238	229	144	1.931071811833
238	230	145	2.0558474626578
239	229	144	4.0866488010554
239	230	145	5.4041083766265
240	230	145	2414.8609813555
241	230	145	1578.4564616466

