version 2
run Default-0-20230822-22:06:45-9630
attr configname Default
attr datetime 20230822-22:06:45
attr experiment Default
attr inifile omnetpp.ini
attr iterationvars ""
attr iterationvarsf ""
attr measurement ""
attr network RSUExampleScenario
attr processid 9630
attr repetition 0
attr replication #0
attr resultdir results
attr runnumber 0
attr seedset 0
param *.playgroundSizeX 2500m
param *.playgroundSizeY 2500m
param *.playgroundSizeZ 50m
param *.annotations.draw true
param *.obstacles.obstacles "xmldoc(\"config.xml\", \"//AnalogueModel[@type='SimpleObstacleShadowing']/obstacles\")"
param *.manager.updateInterval 1s
param *.manager.host "\"localhost\""
param *.manager.port 9999
param *.manager.autoShutdown true
param *.manager.launchConfig "xmldoc(\"erlangen.launchd.xml\")"
param *.rsu[0].mobility.x 2000
param *.rsu[0].mobility.y 2000
param *.rsu[0].mobility.z 3
param *.rsu[*].applType "\"TraCIDemoRSU11p\""
param *.rsu[*].appl.headerLength "80 bit"
param *.rsu[*].appl.sendBeacons false
param *.rsu[*].appl.dataOnSch false
param *.rsu[*].appl.beaconInterval 1s
param *.rsu[*].appl.beaconUserPriority 7
param *.rsu[*].appl.dataUserPriority 5
param *.rsu[*].nic.phy80211p.antennaOffsetZ "0 m"
param *.connectionManager.sendDirect true
param *.connectionManager.maxInterfDist 2600m
param *.connectionManager.drawMaxIntfDist false
param *.**.nic.mac1609_4.useServiceChannel false
param *.**.nic.mac1609_4.txPower 20mW
param *.**.nic.mac1609_4.bitrate 6Mbps
param *.**.nic.phy80211p.minPowerLevel -200dBm
param *.**.nic.phy80211p.useNoiseFloor true
param *.**.nic.phy80211p.noiseFloor -98dBm
param *.**.nic.phy80211p.decider "xmldoc(\"config.xml\")"
param *.**.nic.phy80211p.analogueModels "xmldoc(\"config.xml\")"
param *.**.nic.phy80211p.usePropagationDelay true
param *.**.nic.phy80211p.antenna "xmldoc(\"antenna.xml\", \"/root/Antenna[@id='monopole']\")"
param *.node[*].nic.phy80211p.antennaOffsetY "0 m"
param *.node[*].nic.phy80211p.antennaOffsetZ "1.895 m"
param *.node[*].applType "\"TraCIDemo11p\""
param *.node[*].appl.headerLength "80 bit"
param *.node[*].appl.sendBeacons false
param *.node[*].appl.dataOnSch false
param *.node[*].appl.beaconInterval 1s
param *.node[*].veinsmobility.x 0
param *.node[*].veinsmobility.y 0
param *.node[*].veinsmobility.z 0
param *.node[*].veinsmobility.setHostSpeed false
param *.node[*0].veinsmobility.accidentCount 1
param *.node[*0].veinsmobility.accidentStart 73s
param *.node[*0].veinsmobility.accidentDuration 50s

vector 0 RSUExampleScenario.node[0].veinsmobility posx ETV
vector 1 RSUExampleScenario.node[0].veinsmobility posy ETV
vector 2 RSUExampleScenario.node[0].veinsmobility speed ETV
vector 3 RSUExampleScenario.node[0].veinsmobility acceleration ETV
vector 4 RSUExampleScenario.node[0].veinsmobility co2emission ETV
vector 5 RSUExampleScenario.node[1].veinsmobility posx ETV
vector 6 RSUExampleScenario.node[1].veinsmobility posy ETV
vector 7 RSUExampleScenario.node[1].veinsmobility speed ETV
vector 8 RSUExampleScenario.node[1].veinsmobility acceleration ETV
vector 9 RSUExampleScenario.node[1].veinsmobility co2emission ETV
vector 10 RSUExampleScenario.node[2].veinsmobility posx ETV
vector 11 RSUExampleScenario.node[2].veinsmobility posy ETV
vector 12 RSUExampleScenario.node[2].veinsmobility speed ETV
vector 13 RSUExampleScenario.node[2].veinsmobility acceleration ETV
vector 14 RSUExampleScenario.node[2].veinsmobility co2emission ETV
vector 15 RSUExampleScenario.node[3].veinsmobility posx ETV
vector 16 RSUExampleScenario.node[3].veinsmobility posy ETV
vector 17 RSUExampleScenario.node[3].veinsmobility speed ETV
vector 18 RSUExampleScenario.node[3].veinsmobility acceleration ETV
vector 19 RSUExampleScenario.node[3].veinsmobility co2emission ETV
vector 20 RSUExampleScenario.node[4].veinsmobility posx ETV
vector 21 RSUExampleScenario.node[4].veinsmobility posy ETV
vector 22 RSUExampleScenario.node[4].veinsmobility speed ETV
vector 23 RSUExampleScenario.node[4].veinsmobility acceleration ETV
vector 24 RSUExampleScenario.node[4].veinsmobility co2emission ETV
vector 25 RSUExampleScenario.node[5].veinsmobility posx ETV
vector 26 RSUExampleScenario.node[5].veinsmobility posy ETV
vector 27 RSUExampleScenario.node[5].veinsmobility speed ETV
vector 28 RSUExampleScenario.node[5].veinsmobility acceleration ETV
vector 29 RSUExampleScenario.node[5].veinsmobility co2emission ETV
vector 30 RSUExampleScenario.node[6].veinsmobility posx ETV
vector 31 RSUExampleScenario.node[6].veinsmobility posy ETV
vector 32 RSUExampleScenario.node[6].veinsmobility speed ETV
vector 33 RSUExampleScenario.node[6].veinsmobility acceleration ETV
vector 34 RSUExampleScenario.node[6].veinsmobility co2emission ETV
vector 35 RSUExampleScenario.node[7].veinsmobility posx ETV
vector 36 RSUExampleScenario.node[7].veinsmobility posy ETV
vector 37 RSUExampleScenario.node[7].veinsmobility speed ETV
vector 38 RSUExampleScenario.node[7].veinsmobility acceleration ETV
vector 39 RSUExampleScenario.node[7].veinsmobility co2emission ETV
vector 40 RSUExampleScenario.node[8].veinsmobility posx ETV
vector 41 RSUExampleScenario.node[8].veinsmobility posy ETV
vector 42 RSUExampleScenario.node[8].veinsmobility speed ETV
vector 43 RSUExampleScenario.node[8].veinsmobility acceleration ETV
vector 44 RSUExampleScenario.node[8].veinsmobility co2emission ETV
vector 45 RSUExampleScenario.node[9].veinsmobility posx ETV
vector 46 RSUExampleScenario.node[9].veinsmobility posy ETV
vector 47 RSUExampleScenario.node[9].veinsmobility speed ETV
vector 48 RSUExampleScenario.node[9].veinsmobility acceleration ETV
vector 49 RSUExampleScenario.node[9].veinsmobility co2emission ETV
vector 50 RSUExampleScenario.node[10].veinsmobility posx ETV
vector 51 RSUExampleScenario.node[10].veinsmobility posy ETV
vector 52 RSUExampleScenario.node[10].veinsmobility speed ETV
vector 53 RSUExampleScenario.node[10].veinsmobility acceleration ETV
vector 54 RSUExampleScenario.node[10].veinsmobility co2emission ETV
vector 55 RSUExampleScenario.node[11].veinsmobility posx ETV
vector 56 RSUExampleScenario.node[11].veinsmobility posy ETV
vector 57 RSUExampleScenario.node[11].veinsmobility speed ETV
vector 58 RSUExampleScenario.node[11].veinsmobility acceleration ETV
vector 59 RSUExampleScenario.node[11].veinsmobility co2emission ETV
vector 60 RSUExampleScenario.node[12].veinsmobility posx ETV
vector 61 RSUExampleScenario.node[12].veinsmobility posy ETV
vector 62 RSUExampleScenario.node[12].veinsmobility speed ETV
vector 63 RSUExampleScenario.node[12].veinsmobility acceleration ETV
vector 64 RSUExampleScenario.node[12].veinsmobility co2emission ETV
vector 65 RSUExampleScenario.node[13].veinsmobility posx ETV
vector 66 RSUExampleScenario.node[13].veinsmobility posy ETV
vector 67 RSUExampleScenario.node[13].veinsmobility speed ETV
vector 68 RSUExampleScenario.node[13].veinsmobility acceleration ETV
vector 69 RSUExampleScenario.node[13].veinsmobility co2emission ETV
vector 70 RSUExampleScenario.node[14].veinsmobility posx ETV
vector 71 RSUExampleScenario.node[14].veinsmobility posy ETV
vector 72 RSUExampleScenario.node[14].veinsmobility speed ETV
vector 73 RSUExampleScenario.node[14].veinsmobility acceleration ETV
vector 74 RSUExampleScenario.node[14].veinsmobility co2emission ETV
vector 75 RSUExampleScenario.node[15].veinsmobility posx ETV
vector 76 RSUExampleScenario.node[15].veinsmobility posy ETV
vector 77 RSUExampleScenario.node[15].veinsmobility speed ETV
vector 78 RSUExampleScenario.node[15].veinsmobility acceleration ETV
vector 79 RSUExampleScenario.node[15].veinsmobility co2emission ETV
vector 80 RSUExampleScenario.node[16].veinsmobility posx ETV
vector 81 RSUExampleScenario.node[16].veinsmobility posy ETV
vector 82 RSUExampleScenario.node[16].veinsmobility speed ETV
vector 83 RSUExampleScenario.node[16].veinsmobility acceleration ETV
vector 84 RSUExampleScenario.node[16].veinsmobility co2emission ETV
vector 85 RSUExampleScenario.node[17].veinsmobility posx ETV
vector 86 RSUExampleScenario.node[17].veinsmobility posy ETV
vector 87 RSUExampleScenario.node[17].veinsmobility speed ETV
vector 88 RSUExampleScenario.node[17].veinsmobility acceleration ETV
vector 89 RSUExampleScenario.node[17].veinsmobility co2emission ETV
vector 90 RSUExampleScenario.node[18].veinsmobility posx ETV
vector 91 RSUExampleScenario.node[18].veinsmobility posy ETV
vector 92 RSUExampleScenario.node[18].veinsmobility speed ETV
vector 93 RSUExampleScenario.node[18].veinsmobility acceleration ETV
vector 94 RSUExampleScenario.node[18].veinsmobility co2emission ETV
vector 95 RSUExampleScenario.node[19].veinsmobility posx ETV
vector 96 RSUExampleScenario.node[19].veinsmobility posy ETV
vector 97 RSUExampleScenario.node[19].veinsmobility speed ETV
vector 98 RSUExampleScenario.node[19].veinsmobility acceleration ETV
vector 99 RSUExampleScenario.node[19].veinsmobility co2emission ETV
vector 100 RSUExampleScenario.node[20].veinsmobility posx ETV
vector 101 RSUExampleScenario.node[20].veinsmobility posy ETV
vector 102 RSUExampleScenario.node[20].veinsmobility speed ETV
vector 103 RSUExampleScenario.node[20].veinsmobility acceleration ETV
vector 104 RSUExampleScenario.node[20].veinsmobility co2emission ETV
vector 105 RSUExampleScenario.node[21].veinsmobility posx ETV
vector 106 RSUExampleScenario.node[21].veinsmobility posy ETV
vector 107 RSUExampleScenario.node[21].veinsmobility speed ETV
vector 108 RSUExampleScenario.node[21].veinsmobility acceleration ETV
vector 109 RSUExampleScenario.node[21].veinsmobility co2emission ETV
vector 110 RSUExampleScenario.node[22].veinsmobility posx ETV
vector 111 RSUExampleScenario.node[22].veinsmobility posy ETV
vector 112 RSUExampleScenario.node[22].veinsmobility speed ETV
vector 113 RSUExampleScenario.node[22].veinsmobility acceleration ETV
vector 114 RSUExampleScenario.node[22].veinsmobility co2emission ETV
vector 115 RSUExampleScenario.node[23].veinsmobility posx ETV
vector 116 RSUExampleScenario.node[23].veinsmobility posy ETV
vector 117 RSUExampleScenario.node[23].veinsmobility speed ETV
vector 118 RSUExampleScenario.node[23].veinsmobility acceleration ETV
vector 119 RSUExampleScenario.node[23].veinsmobility co2emission ETV
vector 120 RSUExampleScenario.node[24].veinsmobility posx ETV
vector 121 RSUExampleScenario.node[24].veinsmobility posy ETV
vector 122 RSUExampleScenario.node[24].veinsmobility speed ETV
vector 123 RSUExampleScenario.node[24].veinsmobility acceleration ETV
vector 124 RSUExampleScenario.node[24].veinsmobility co2emission ETV
vector 125 RSUExampleScenario.node[25].veinsmobility posx ETV
vector 126 RSUExampleScenario.node[25].veinsmobility posy ETV
vector 127 RSUExampleScenario.node[25].veinsmobility speed ETV
vector 128 RSUExampleScenario.node[25].veinsmobility acceleration ETV
vector 129 RSUExampleScenario.node[25].veinsmobility co2emission ETV
vector 130 RSUExampleScenario.node[26].veinsmobility posx ETV
vector 131 RSUExampleScenario.node[26].veinsmobility posy ETV
vector 132 RSUExampleScenario.node[26].veinsmobility speed ETV
vector 133 RSUExampleScenario.node[26].veinsmobility acceleration ETV
vector 134 RSUExampleScenario.node[26].veinsmobility co2emission ETV
vector 135 RSUExampleScenario.node[27].veinsmobility posx ETV
vector 136 RSUExampleScenario.node[27].veinsmobility posy ETV
vector 137 RSUExampleScenario.node[27].veinsmobility speed ETV
vector 138 RSUExampleScenario.node[27].veinsmobility acceleration ETV
vector 139 RSUExampleScenario.node[27].veinsmobility co2emission ETV
vector 140 RSUExampleScenario.node[28].veinsmobility posx ETV
vector 141 RSUExampleScenario.node[28].veinsmobility posy ETV
vector 142 RSUExampleScenario.node[28].veinsmobility speed ETV
vector 143 RSUExampleScenario.node[28].veinsmobility acceleration ETV
vector 144 RSUExampleScenario.node[28].veinsmobility co2emission ETV
vector 145 RSUExampleScenario.node[29].veinsmobility posx ETV
vector 146 RSUExampleScenario.node[29].veinsmobility posy ETV
vector 147 RSUExampleScenario.node[29].veinsmobility speed ETV
vector 148 RSUExampleScenario.node[29].veinsmobility acceleration ETV
vector 149 RSUExampleScenario.node[29].veinsmobility co2emission ETV
vector 150 RSUExampleScenario.node[30].veinsmobility posx ETV
vector 151 RSUExampleScenario.node[30].veinsmobility posy ETV
vector 152 RSUExampleScenario.node[30].veinsmobility speed ETV
vector 153 RSUExampleScenario.node[30].veinsmobility acceleration ETV
vector 154 RSUExampleScenario.node[30].veinsmobility co2emission ETV
vector 155 RSUExampleScenario.node[31].veinsmobility posx ETV
vector 156 RSUExampleScenario.node[31].veinsmobility posy ETV
vector 157 RSUExampleScenario.node[31].veinsmobility speed ETV
vector 158 RSUExampleScenario.node[31].veinsmobility acceleration ETV
vector 159 RSUExampleScenario.node[31].veinsmobility co2emission ETV
vector 160 RSUExampleScenario.node[32].veinsmobility posx ETV
vector 161 RSUExampleScenario.node[32].veinsmobility posy ETV
vector 162 RSUExampleScenario.node[32].veinsmobility speed ETV
vector 163 RSUExampleScenario.node[32].veinsmobility acceleration ETV
vector 164 RSUExampleScenario.node[32].veinsmobility co2emission ETV
vector 165 RSUExampleScenario.node[33].veinsmobility posx ETV
vector 166 RSUExampleScenario.node[33].veinsmobility posy ETV
vector 167 RSUExampleScenario.node[33].veinsmobility speed ETV
vector 168 RSUExampleScenario.node[33].veinsmobility acceleration ETV
vector 169 RSUExampleScenario.node[33].veinsmobility co2emission ETV
0	2	1	2414.8476884116
0	4	2	2411.8243290941
0	18	3	2407.1592244543
0	20	4	2402.288200066
0	39	5	2396.1394374635
0	41	6	2388.6993875942
0	60	7	2379.889221533
0	62	8	2370.1207192459
0	87	9	2360.3141803208
0	89	10	2350.5099475634
0	119	11	2341.0010868867
0	121	12	2334.5620136983
0	151	13	2337.6803779466
0	153	14	2348.3497968862
0	189	15	2358.6961674725
0	191	16	2371.6616533546
0	231	17	2385.4706804305
0	233	18	2399.3588350668
0	273	19	2412.4541998667
0	275	20	2421.4418196582
0	320	21	2428.417609864
0	322	22	2431.468930052
0	369	23	2433.1513403206
0	371	24	2435.1237040944
0	418	25	2437.2173147583
0	420	26	2438.6437980286
0	470	27	2439.5074353185
0	472	28	2440.517813261
0	523	29	2441.5286354903
0	525	30	2442.5392864447
0	576	31	2443.5505626462
0	578	32	2444.5611125134
0	637	33	2445.5724211388
0	639	34	2446.5834693939
0	700	35	2447.5934051003
0	702	36	2448.6036931522
0	767	37	2449.6148620235
0	769	38	2450.6248001783
0	839	39	2449.5880553933
0	841	40	2448.4757357414
0	909	41	2447.3635385588
0	911	42	2446.250303259
0	986	43	2445.1365203297
0	988	44	2444.0235521834
0	1071	45	2442.9111769209
0	1073	46	2441.7982721732
0	1154	47	2440.6856421625
0	1156	48	2439.7151308154
0	1236	49	2438.7725309408
0	1238	50	2437.9056889905
0	1318	51	2432.8785054281
0	1320	52	2422.5273191113
0	1409	53	2409.439604845
0	1411	54	2395.517893619
0	1504	55	2381.592286239
0	1506	56	2367.6659531716
0	1604	57	2353.7601239877
0	1606	58	2339.8337569573
0	1713	59	2325.9069679289
0	1715	60	2311.9542202253
0	1820	61	2298.0325140053
0	1822	62	2284.0857072632
0	1929	63	2270.1754193477
0	1931	64	2256.2378749268
0	2045	65	2242.3725172955
0	2047	66	2228.5568932705
0	2166	67	2214.8035730832
0	2168	68	2201.6130456962
0	2288	69	2188.4247624045
0	2290	70	2175.5107078577
0	2418	71	2163.5018647154
0	2420	72	2152.2359160049
0	2552	73	2144.5614629743
0	2555	74	2140.764952604
0	2691	75	2140.3209259163
0	2693	76	2140.3209259163
0	2835	77	2140.3209259163
0	2837	78	2140.3209259163
0	2982	79	2140.3209259163
0	2984	80	2140.3209259163
0	3133	81	2140.3209259163
0	3135	82	2140.3209259163
0	3285	83	2140.3209259163
0	3287	84	2140.3209259163
0	3435	85	2140.3209259163
0	3437	86	2140.3209259163
0	3590	87	2140.3209259163
0	3592	88	2140.3209259163
0	3756	89	2140.3209259163
0	3758	90	2140.3209259163
0	3926	91	2140.3209259163
0	3928	92	2140.3209259163
0	4099	93	2140.3209259163
0	4101	94	2140.3209259163
0	4280	95	2140.3209259163
0	4282	96	2140.3209259163
0	4462	97	2140.3209259163
0	4464	98	2140.3209259163
0	4644	99	2140.3209259163
0	4646	100	2140.3209259163
0	4829	101	2140.3209259163
0	4831	102	2140.3209259163
1	2	1	1578.4613427464
1	4	2	1579.5715045081
1	18	3	1581.5561876604
1	20	4	1586.4898643075
1	39	5	1592.7177137369
1	41	6	1600.2534592729
1	60	7	1609.1769437566
1	62	8	1619.0710908128
1	87	9	1629.0037637418
1	89	10	1638.9341008412
1	119	11	1649.1129276818
1	121	12	1661.0453354148
1	151	13	1673.5713017788
1	153	14	1682.4825292248
1	189	15	1691.8131453674
1	191	16	1695.5671389326
1	231	17	1697.3762977775
1	233	18	1698.7149431584
1	273	19	1699.9531973498
1	275	20	1700.8030368192
1	320	21	1701.4822415169
1	322	22	1709.488976148
1	369	23	1720.5600911779
1	371	24	1733.5392477075
1	418	25	1747.3162704222
1	420	26	1761.1584832035
1	470	27	1775.0702432813
1	472	28	1788.9649324082
1	523	29	1802.8657313576
1	525	30	1816.7641749373
1	576	31	1830.6712168986
1	578	32	1844.5682703312
1	637	33	1858.4757581847
1	639	34	1872.3796654344
1	700	35	1886.2682729438
1	702	36	1900.1617258992
1	767	37	1914.0672918586
1	769	38	1927.95593304
1	839	39	1941.8192613758
1	841	40	1955.7024557721
1	909	41	1969.5841215905
1	911	42	1983.4787444612
1	986	43	1997.3802024601
1	988	44	2011.2714909082
1	1071	45	2025.1553793969
1	1073	46	2039.0458765477
1	1154	47	2052.9329446238
1	1156	48	2066.8462265795
1	1236	49	2080.7728807703
1	1238	50	2094.6498483503
1	1318	51	2107.3969092406
1	1320	52	2116.410831539
1	1409	53	2120.9360540062
1	1411	54	2120.5048353085
1	1504	55	2120.0344859883
1	1506	56	2119.5641121576
1	1604	57	2119.0944308629
1	1606	58	2118.6240558857
1	1713	59	2118.1536666537
1	1715	60	2117.6824006466
1	1820	61	2117.2121830918
1	1822	62	2116.7411177447
1	1929	63	2116.2712858524
1	1931	64	2115.8005333487
1	2045	65	2114.7955725584
1	2047	66	2112.8364102887
1	2166	67	2110.6440530941
1	2168	68	2106.1704403665
1	2288	69	2101.6975887315
1	2290	70	2096.6391956527
1	2418	71	2089.5697793076
1	2420	72	2082.9376931852
1	2552	73	2078.419863862
1	2555	74	2076.1849181512
1	2691	75	2075.9235266512
1	2693	76	2075.9235266512
1	2835	77	2075.9235266512
1	2837	78	2075.9235266512
1	2982	79	2075.9235266512
1	2984	80	2075.9235266512
1	3133	81	2075.9235266512
1	3135	82	2075.9235266512
1	3285	83	2075.9235266512
1	3287	84	2075.9235266512
1	3435	85	2075.9235266512
1	3437	86	2075.9235266512
1	3590	87	2075.9235266512
1	3592	88	2075.9235266512
1	3756	89	2075.9235266512
1	3758	90	2075.9235266512
1	3926	91	2075.9235266512
1	3928	92	2075.9235266512
1	4099	93	2075.9235266512
1	4101	94	2075.9235266512
1	4280	95	2075.9235266512
1	4282	96	2075.9235266512
1	4462	97	2075.9235266512
1	4464	98	2075.9235266512
1	4644	99	2075.9235266512
1	4646	100	2075.9235266512
1	4829	101	2075.9235266512
1	4831	102	2075.9235266512
2	4	2	4.1061966058897
2	18	3	6.0195495591482
2	20	4	7.7148368984793
2	39	5	9.5879868385225
2	41	6	11.391389363371
2	60	7	13.513839789145
2	62	8	13.99235115225
2	87	9	13.890224446259
2	89	10	13.976677174468
2	119	11	13.994826577434
2	121	12	13.923680325528
2	151	13	13.923542996629
2	153	14	13.91007151508
2	189	15	13.964598868005
2	191	16	13.995233640105
2	231	17	13.952304350403
2	233	18	13.956911946491
2	273	19	11.503494614513
2	275	20	7.0034946145128
2	320	21	7.8970062485022
2	322	22	10.10483181514
2	369	23	11.990706169653
2	371	24	13.981089308816
2	418	25	13.965594365916
2	420	26	13.989059597438
2	470	27	13.956378436291
2	472	28	13.910982951869
2	523	29	13.88918493646
2	525	30	13.908189346099
2	576	31	13.983992603337
2	578	32	13.971500478752
2	637	33	13.873081948087
2	639	34	13.985133641064
2	700	35	13.886848415199
2	702	36	13.876205747321
2	767	37	13.967912819823
2	769	38	13.871047234884
2	839	39	13.89239756926
2	841	40	13.872267716837
2	909	41	13.999815066161
2	911	42	13.964707984752
2	986	43	13.906584702837
2	988	44	13.922364303169
2	1071	45	13.929034490574
2	1073	46	13.93922677479
2	1154	47	13.924399639922
2	1156	48	13.96850544848
2	1236	49	13.986686690277
2	1238	50	13.935194088209
2	1318	51	13.930097484484
2	1320	52	13.948393711536
2	1409	53	13.882971800906
2	1411	54	13.87138918183
2	1504	55	13.933780807857
2	1506	56	13.942265776542
2	1604	57	13.95140511482
2	1606	58	13.886548467774
2	1713	59	13.920721456567
2	1715	60	13.906796863726
2	1820	61	13.917803910668
2	1822	62	13.924582225601
2	1929	63	13.959688465288
2	1931	64	13.957318032989
2	2045	65	13.940553226951
2	2047	66	13.998651232829
2	2166	67	13.999179182528
2	2168	68	13.886099785112
2	2288	69	13.881868150404
2	2290	70	13.887636745651
2	2418	71	13.978686858166
2	2420	72	11.380505228889
2	2552	73	6.8805052288885
2	2555	74	2.3805052288885
2	2691	75	0
2	2693	76	0
2	2835	77	0
2	2837	78	0
2	2982	79	0
2	2984	80	0
2	3133	81	0
2	3135	82	0
2	3285	83	0
2	3287	84	0
2	3435	85	0
2	3437	86	0
2	3590	87	0
2	3592	88	0
2	3756	89	0
2	3758	90	0
2	3926	91	0
2	3928	92	0
2	4099	93	0
2	4101	94	0
2	4280	95	0
2	4282	96	0
2	4462	97	0
2	4464	98	0
2	4644	99	0
2	4646	100	0
2	4829	101	0
2	4831	102	0
3	18	3	1.9133529532584
3	20	4	1.6952873393311
3	39	5	1.8731499400432
3	41	6	1.8034025248489
3	60	7	2.1224504257739
3	62	8	0.47851136310433
3	87	9	-0.1021267059911
3	89	10	0.086452728209551
3	119	11	0.018149402965792
3	121	12	-0.071146251906175
3	151	13	-0.0001373288989992
3	153	14	-0.013471481548622
3	189	15	0.054527352924923
3	191	16	0.03063477210002
3	231	17	-0.04292928970186
3	233	18	0.0046075960877356
3	273	19	-2.4534173319781
3	275	20	-4.5
3	320	21	0.8935116339894
3	322	22	2.2078255666373
3	369	23	1.8858743545134
3	371	24	1.9903831391631
3	418	25	-0.01549494290026
3	420	26	0.023465231521987
3	470	27	-0.032681161146611
3	472	28	-0.045395484422334
3	523	29	-0.021798015409148
3	525	30	0.019004409639164
3	576	31	0.075803257238585
3	578	32	-0.012492124584968
3	637	33	-0.098418530665803
3	639	34	0.11205169297755
3	700	35	-0.098285225864965
3	702	36	-0.01064266787842
3	767	37	0.091707072502468
3	769	38	-0.096865584938786
3	839	39	0.021350334375166
3	841	40	-0.020129852422979
3	909	41	0.12754734932445
3	911	42	-0.035107081409079
3	986	43	-0.058123281914741
3	988	44	0.015779600332026
3	1071	45	0.0066701874043797
3	1073	46	0.010192284216172
3	1154	47	-0.014827134867664
3	1156	48	0.044105808557942
3	1236	49	0.018181241797283
3	1238	50	-0.051492602068466
3	1318	51	-0.0050966037251055
3	1320	52	0.018296227052343
3	1409	53	-0.065421910630539
3	1411	54	-0.011582619075197
3	1504	55	0.062391626026946
3	1506	56	0.0084849686850799
3	1604	57	0.0091393382777465
3	1606	58	-0.064856647045817
3	1713	59	0.034172988792415
3	1715	60	-0.013924592840485
3	1820	61	0.011007046941668
3	1822	62	0.0067783149331806
3	1929	63	0.035106239686721
3	1931	64	-0.0023704322986315
3	2045	65	-0.016764806038699
3	2047	66	0.058098005878273
3	2166	67	0.0005279496987356
3	2168	68	-0.11307939741528
3	2288	69	-0.0042316347081215
3	2290	70	0.0057685952470639
3	2418	71	0.091050112515221
3	2420	72	-2.598181629278
3	2552	73	-4.5
3	2555	74	-4.5
3	2691	75	-2.3805052288885
3	2693	76	0
3	2835	77	0
3	2837	78	0
3	2982	79	0
3	2984	80	0
3	3133	81	0
3	3135	82	0
3	3285	83	0
3	3287	84	0
3	3435	85	0
3	3437	86	0
3	3590	87	0
3	3592	88	0
3	3756	89	0
3	3758	90	0
3	3926	91	0
3	3928	92	0
3	4099	93	0
3	4101	94	0
3	4280	95	0
3	4282	96	0
3	4462	97	0
3	4464	98	0
3	4644	99	0
3	4646	100	0
3	4829	101	0
3	4831	102	0
4	18	3	4.1962556146115
4	20	4	4.6765885426193
4	39	5	5.9822455727343
4	41	6	6.7469998477461
4	60	7	8.9023657158011
4	62	8	3.651678681686
4	87	9	1.6857621818206
4	89	10	2.3276633668785
4	119	11	2.0995306276608
4	121	12	1.7923040941768
4	151	13	2.0305681317735
4	153	14	1.9844951865828
4	189	15	2.2187318873595
4	191	16	2.1416854339172
4	231	17	1.8896148890835
4	233	18	2.0499339673421
4	273	19	0.973
4	275	20	0.973
4	320	21	3.236958348016
4	322	22	7.0694109561587
4	369	23	7.2974163894139
4	371	24	8.7433911631671
4	418	25	1.9831721788576
4	420	26	2.116835898497
4	470	27	1.9244585801898
4	472	28	1.8775583559564
4	523	29	1.9545657515643
4	525	30	2.0931646705581
4	576	31	2.2926746988581
4	578	32	1.993865292131
4	637	33	1.6968396252803
4	639	34	2.4149847823944
4	700	35	1.6983583398882
4	702	36	1.9906198998388
4	767	37	2.3442713071536
4	769	38	1.7018725964397
4	839	39	2.0993392475273
4	841	40	1.9585122345881
4	909	41	2.4691677522194
4	911	42	1.9170802753567
4	986	43	1.8345014514108
4	988	44	2.0838538984303
4	1071	45	2.0539801513469
4	1073	46	2.0668686152862
4	1154	47	1.9813596940184
4	1156	48	2.1840996762636
4	1236	49	2.0987681125428
4	1238	50	1.8592856847688
4	1318	51	2.0145873760113
4	1320	52	2.0950692067684
4	1409	53	1.8080099866508
4	1411	54	1.9870007069688
4	1504	55	2.2415869227426
4	1506	56	2.0614496349521
4	1604	57	2.0646020593826
4	1606	58	1.8102089718445
4	1713	59	2.1453880261281
4	1715	60	1.9826536733129
4	1820	61	2.0673636130683
4	1822	62	2.0538817544551
4	1929	63	2.1528270365066
4	1931	64	2.0265038417738
4	2045	65	1.9764402783138
4	2047	66	2.2347131127692
4	2166	67	2.0405446651404
4	2168	68	1.6487905152147
4	2288	69	2.0126291187762
4	2290	70	2.0466796925005
4	2418	71	2.3433989621326
4	2420	72	0.973
4	2552	73	0.973
4	2555	74	0.973
4	2691	75	0.973
4	2693	76	0.973
4	2835	77	0.973
4	2837	78	0.973
4	2982	79	0.973
4	2984	80	0.973
4	3133	81	0.973
4	3135	82	0.973
4	3285	83	0.973
4	3287	84	0.973
4	3435	85	0.973
4	3437	86	0.973
4	3590	87	0.973
4	3592	88	0.973
4	3756	89	0.973
4	3758	90	0.973
4	3926	91	0.973
4	3928	92	0.973
4	4099	93	0.973
4	4101	94	0.973
4	4280	95	0.973
4	4282	96	0.973
4	4462	97	0.973
4	4464	98	0.973
4	4644	99	0.973
4	4646	100	0.973
4	4829	101	0.973
4	4831	102	0.973
5	20	4	2414.8767583254
5	39	5	2411.8725636174
5	41	6	2407.2970525089
5	60	7	2402.4626210862
5	62	8	2396.3056860371
5	87	9	2388.8743536096
5	89	10	2380.097228827
5	119	11	2370.3507264333
5	121	12	2360.5878487076
5	151	13	2350.7849318213
5	153	14	2341.2418729237
5	189	15	2334.6305580324
5	191	16	2337.3467480277
5	231	17	2348.0519014368
5	233	18	2358.3998493504
5	273	19	2371.2788021446
5	275	20	2385.0887639745
5	320	21	2398.4985461925
5	322	22	2411.2485283293
5	369	23	2420.6905829484
5	371	24	2427.6440450998
5	418	25	2431.3031180431
5	420	26	2432.9057471878
5	470	27	2434.8184996871
5	472	28	2436.9106889558
5	523	29	2438.5031214217
5	525	30	2439.359314087
5	576	31	2440.3695716034
5	578	32	2441.3815056744
5	637	33	2442.392207776
5	639	34	2443.4019859718
5	700	35	2444.4122552489
5	702	36	2445.4251439738
5	767	37	2446.4367595227
5	769	38	2447.4467230743
5	839	39	2448.4574488286
5	841	40	2449.467800329
5	909	41	2450.4780716181
5	911	42	2449.7461704329
5	986	43	2448.6331060936
5	988	44	2447.5209445587
5	1071	45	2446.407523851
5	1073	46	2445.2946584851
5	1154	47	2444.1824360332
5	1156	48	2443.0706190476
5	1236	49	2441.9568028547
5	1238	50	2440.8451110823
5	1318	51	2439.8503503047
5	1320	52	2438.9091742415
5	1409	53	2438.2310626655
5	1411	54	2433.9050446447
5	1504	55	2424.21615465
5	1506	56	2411.3460908785
5	1604	57	2397.4706148925
5	1606	58	2383.5587488873
5	1713	59	2369.633660475
5	1715	60	2355.7048479554
5	1820	61	2341.7904321874
5	1822	62	2327.8638711022
5	1929	63	2313.9188814831
5	1931	64	2299.9979078089
5	2045	65	2286.0826278217
5	2047	66	2272.1551827891
5	2166	67	2258.2333055256
5	2168	68	2244.3319301521
5	2288	69	2230.5388995206
5	2290	70	2216.7493601282
5	2418	71	2203.5089906314
5	2420	72	2190.3028214657
5	2552	73	2177.2175397498
5	2555	74	2166.0508945999
5	2691	75	2157.6231104804
5	2693	76	2151.7712981963
5	2835	77	2148.1230201763
5	2837	78	2146.1290875688
5	2982	79	2145.2101491778
5	2984	80	2144.8407904832
5	3133	81	2144.7060883162
5	3135	82	2144.6576023959
5	3285	83	2144.6402772203
5	3287	84	2144.6340603527
5	3435	85	2144.6318573126
5	3437	86	2144.6310625414
5	3590	87	2144.6307734308
5	3592	88	2144.6306706183
5	3756	89	2144.6306334067
5	3758	90	2144.6306210222
5	3926	91	2144.6306210222
5	3928	92	2144.6306210222
5	4099	93	2144.6306210222
5	4101	94	2144.6306210222
5	4280	95	2144.6306210222
5	4282	96	2144.6306210222
5	4462	97	2144.6306210222
5	4464	98	2144.6306210222
5	4644	99	2144.6306210222
5	4646	100	2144.6306210222
5	4829	101	2144.6306210222
5	4831	102	2144.6306210222
6	20	4	1578.4506684253
6	39	5	1579.5537930429
6	41	6	1581.4165868293
6	60	7	1586.3131998433
6	62	8	1592.5493268352
6	87	9	1600.0762428036
6	89	10	1608.9662610246
6	119	11	1618.8381252186
6	121	12	1628.7265753681
6	151	13	1638.6555796713
6	153	14	1648.8046840783
6	189	15	1660.6325348346
6	191	16	1673.301875555
6	231	17	1682.2138796467
6	233	18	1691.5459182626
6	273	19	1695.5099147679
6	275	20	1697.3308411958
6	320	21	1698.6335971011
6	322	22	1699.8391930545
6	369	23	1700.7320023719
6	371	24	1701.2941834759
6	418	25	1708.3978488175
6	420	26	1718.9439634858
6	470	27	1731.5308475178
6	472	28	1745.2985167308
6	523	29	1759.1189484736
6	525	30	1773.033284259
6	576	31	1786.9263172904
6	578	32	1800.8424062571
6	637	33	1814.7415532097
6	639	34	1828.6279946407
6	700	35	1842.5211894047
6	702	36	1856.4504067414
6	767	37	1870.362115399
6	769	38	1884.2511058366
6	839	39	1898.150578063
6	841	40	1912.0449035605
6	909	41	1925.9381259941
6	911	42	1939.8457802581
6	986	43	1953.7382693188
6	988	44	1967.6194902081
6	1071	45	1981.5164272105
6	1073	46	1995.4064328251
6	1154	47	2009.2884140396
6	1156	48	2023.165334505
6	1236	49	2037.0672076773
6	1238	50	2050.942565321
6	1318	51	2064.8483957723
6	1320	52	2078.754013543
6	1409	53	2092.6537938379
6	1411	54	2105.6893007364
6	1504	55	2115.3934075218
6	1506	56	2120.5034639826
6	1604	57	2120.5707901428
6	1606	58	2120.100904949
6	1713	59	2119.6305731572
6	1715	60	2119.160115581
6	1820	61	2118.6901442679
6	1822	62	2118.2197627351
6	1929	63	2117.748758764
6	1931	64	2117.2785659507
6	2045	65	2116.8085654471
6	2047	66	2116.3381540589
6	2166	67	2115.8679307271
6	2168	68	2115.0734324455
6	2288	69	2113.117474094
6	2290	70	2111.1620108271
6	2418	71	2106.8134566117
6	2420	72	2102.3345389208
6	2552	73	2097.6439806372
6	2555	74	2091.0703529529
6	2691	75	2086.1090495121
6	2693	76	2082.6641800171
6	2835	77	2080.516496351
6	2837	78	2079.3426997084
6	2982	79	2078.8017351869
6	2984	80	2078.584299556
6	3133	81	2078.5050025163
6	3135	82	2078.4764596215
6	3285	83	2078.4662605636
6	3287	84	2078.4626007918
6	3435	85	2078.4613038972
6	3437	86	2078.4608360277
6	3590	87	2078.4606658332
6	3592	88	2078.4606053084
6	3756	89	2078.4605834028
6	3758	90	2078.4605761124
6	3926	91	2078.4605761124
6	3928	92	2078.4605761124
6	4099	93	2078.4605761124
6	4101	94	2078.4605761124
6	4280	95	2078.4605761124
6	4282	96	2078.4605761124
6	4462	97	2078.4605761124
6	4464	98	2078.4605761124
6	4644	99	2078.4605761124
6	4646	100	2078.4605761124
6	4829	101	2078.4605761124
6	4831	102	2078.4605761124
7	39	5	4.0332649588119
7	41	6	5.8265110515686
7	60	7	7.7852127750962
7	62	8	9.5658873894228
7	87	9	11.450149483434
7	89	10	13.391487500134
7	119	11	13.949883621705
7	121	12	13.87602620427
7	151	13	13.885232782268
7	153	14	13.987373048679
7	189	15	13.890608048609
7	191	16	13.887004709987
7	231	17	13.926980708602
7	233	18	13.89086526999
7	273	19	13.965056618985
7	275	20	13.946692067499
7	320	21	13.097137451398
7	322	22	11.939132677032
7	369	23	7.4783001788439
7	371	24	7.8592269216425
7	418	25	9.5749213322898
7	420	26	11.610942506126
7	470	27	13.581243869506
7	472	28	13.973211987913
7	523	29	13.918392209036
7	525	30	13.928662607018
7	576	31	13.985277111761
7	578	32	13.95532245066
7	637	33	13.938708755139
7	639	34	13.908545650935
7	700	35	13.927478809105
7	702	36	13.897819017794
7	767	37	13.989504252097
7	769	38	13.94374062394
7	839	39	13.903882643976
7	841	40	13.969130632835
7	909	41	13.884234787642
7	911	42	13.881978327318
7	986	43	13.927070145076
7	988	44	13.922745489741
7	1071	45	13.95273740395
7	1073	46	13.968270483359
7	1154	47	13.918685564972
7	1156	48	13.921468284922
7	1236	49	13.897015957548
7	1238	50	13.964752228069
7	1318	51	13.91147568828
7	1320	52	13.974545761354
7	1409	53	13.965476403411
7	1411	54	13.989670229855
7	1504	55	13.951804798429
7	1506	56	13.892850009208
7	1604	57	13.958218119799
7	1606	58	13.933717581006
7	1713	59	13.982012811573
7	1715	60	13.954506225567
7	1820	61	13.954468280503
7	1822	62	13.914126337939
7	1929	63	13.998578815588
7	1931	64	13.932968401979
7	2045	65	13.954534002345
7	2047	66	13.957377178506
7	2166	67	13.932528918332
7	2168	68	13.977439161665
7	2288	69	13.873707558191
7	2290	70	13.945779315263
7	2418	71	13.942668949808
7	2420	72	13.91575948562
7	2552	73	13.907857767178
7	2555	74	11.509649644586
7	2691	75	8.354934886828
7	2693	76	5.5437759062738
7	2835	77	3.307407476074
7	2837	78	1.6348540751313
7	2982	79	0.71722348573033
7	2984	80	0.25744643425691
7	3133	81	0.096330583691781
7	3135	82	0.033582834564042
7	3285	83	0.012074018451278
7	3287	84	0.0044146382852531
7	3435	85	0.0015233755870791
7	3437	86	0.00054909975708676
7	3590	87	0.00020074254418819
7	3592	88	7.4381901450912e-05
7	3756	89	2.6390612555901e-05
7	3758	90	0
7	3926	91	0
7	3928	92	0
7	4099	93	0
7	4101	94	0
7	4280	95	0
7	4282	96	0
7	4462	97	0
7	4464	98	0
7	4644	99	0
7	4646	100	0
7	4829	101	0
7	4831	102	0
8	41	6	1.7932460927567
8	60	7	1.9587017235276
8	62	8	1.7806746143266
8	87	9	1.8842620940111
8	89	10	1.9413380167005
8	119	11	0.5583961215709
8	121	12	-0.073857417434921
8	151	13	0.0092065779981212
8	153	14	0.10214026641101
8	189	15	-0.096765000070445
8	191	16	-0.0036033386224883
8	231	17	0.039975998615846
8	233	18	-0.036115438612178
8	273	19	0.074191348995083
8	275	20	-0.018364551486448
8	320	21	-0.84955461610103
8	322	22	-1.1580047743662
8	369	23	-4.4608324981877
8	371	24	0.38092674279862
8	418	25	1.7156944106473
8	420	26	2.0360211738362
8	470	27	1.9703013633797
8	472	28	0.39196811840698
8	523	29	-0.054819778876846
8	525	30	0.010270397982096
8	576	31	0.056614504742901
8	578	32	-0.029954661100637
8	637	33	-0.016613695521373
8	639	34	-0.030163104203529
8	700	35	0.018933158169965
8	702	36	-0.029659791311714
8	767	37	0.091685234303586
8	769	38	-0.045763628156855
8	839	39	-0.039857979963999
8	841	40	0.065247988859191
8	909	41	-0.08489584519295
8	911	42	-0.0022564603248618
8	986	43	0.045091817758511
8	988	44	-0.0043246553349299
8	1071	45	0.029991914208512
8	1073	46	0.015533079409506
8	1154	47	-0.0495849183877
8	1156	48	0.0027827199501917
8	1236	49	-0.024452327373437
8	1238	50	0.067736270520836
8	1318	51	-0.053276539789513
8	1320	52	0.063070073074195
8	1409	53	-0.0090693579427903
8	1411	54	0.024193826443517
8	1504	55	-0.037865431425162
8	1506	56	-0.058954789221753
8	1604	57	0.065368110591081
8	1606	58	-0.024500538792926
8	1713	59	0.048295230567454
8	1715	60	-0.027506586005911
8	1820	61	-3.7945064249811e-05
8	1822	62	-0.040341942564119
8	1929	63	0.08445247764932
8	1931	64	-0.065610413609539
8	2045	65	0.021565600365866
8	2047	66	0.0028431761614058
8	2166	67	-0.024848260174041
8	2168	68	0.044910243332852
8	2288	69	-0.10373160347343
8	2290	70	0.072071757072118
8	2418	71	-0.0031103654555054
8	2420	72	-0.02690946418792
8	2552	73	-0.0079017184418628
8	2555	74	-2.3982081225927
8	2691	75	-3.1547147577576
8	2693	76	-2.8111589805542
8	2835	77	-2.2363684301998
8	2837	78	-1.6725534009427
8	2982	79	-0.91763058940095
8	2984	80	-0.45977705147342
8	3133	81	-0.16111585056513
8	3135	82	-0.062747749127738
8	3285	83	-0.021508816112765
8	3287	84	-0.0076593801660245
8	3435	85	-0.002891262698174
8	3437	86	-0.00097427582999232
8	3590	87	-0.00034835721289857
8	3592	88	-0.00012636064273728
8	3756	89	-4.7991288895011e-05
8	3758	90	-2.6390612555901e-05
8	3926	91	0
8	3928	92	0
8	4099	93	0
8	4101	94	0
8	4280	95	0
8	4282	96	0
8	4462	97	0
8	4464	98	0
8	4644	99	0
8	4646	100	0
8	4829	101	0
8	4831	102	0
9	41	6	3.9274001426868
9	60	7	5.2041356246368
9	62	8	5.7574507674447
9	87	9	7.0006276784153
9	89	10	8.2432295261252
9	119	11	3.9110016848773
9	121	12	1.7792042638201
9	151	13	2.0579365757541
9	153	14	2.3818636967155
9	189	15	1.7037407999188
9	191	16	2.0152488537881
9	231	17	2.1655550639215
9	233	18	1.906797412239
9	273	19	2.2849654495652
9	275	20	1.9716653983805
9	320	21	0.973
9	322	22	0.973
9	369	23	0.973
9	371	24	2.2554772362628
9	418	25	5.6120472675651
9	420	26	7.5119842129131
9	470	27	8.4455276517466
9	472	28	3.3560730035355
9	523	29	1.8466200733259
9	525	30	2.0660268329645
9	576	31	2.2281549844786
9	578	32	1.9335288120447
9	637	33	1.9767670407741
9	639	34	1.9283950769156
9	700	35	2.0949799016024
9	702	36	1.9290667558988
9	767	37	2.3468857079218
9	769	38	1.8793040227889
9	839	39	1.8954681876561
9	841	40	2.2553467174174
9	909	41	1.7429567241042
9	911	42	2.0192482635441
9	986	43	2.1827359052182
9	988	44	2.0164367628106
9	1071	45	2.1348602115454
9	1073	46	2.0878872407227
9	1154	47	1.8642059318509
9	1156	48	2.0401536442479
9	1236	49	1.9464315106901
9	1238	50	2.2632042711189
9	1318	51	1.851180617826
9	1320	52	2.2486511283506
9	1409	53	2.0047870143605
9	1411	54	2.1193583924862
9	1504	55	1.9065956504161
9	1506	56	1.8305118457369
9	1604	57	2.2544630998412
9	1606	58	1.9497933768092
9	1713	59	2.199742909699
9	1715	60	1.9416842431598
9	1820	61	2.0340583936544
9	1822	62	1.8947902862501
9	1929	63	2.3236156337703
9	1931	64	1.8116807487081
9	2045	65	2.1067187558746
9	2047	66	2.0440470145686
9	2166	67	1.9485115452067
9	2168	68	2.1878187851485
9	2288	69	1.6791237400594
9	2290	70	2.2755265645048
9	2418	71	2.0225291815531
9	2420	72	1.9399893034582
9	2552	73	2.0029455902709
9	2555	74	0.973
9	2691	75	0.973
9	2693	76	0.973
9	2835	77	0.973
9	2837	78	0.973
9	2982	79	0.973
9	2984	80	0.973
9	3133	81	0.973
9	3135	82	1.1111121928442
9	3285	83	1.1105198636326
9	3287	84	1.1102048131311
9	3435	85	1.1100724261592
9	3437	86	1.1100263596434
9	3590	87	1.1100096669672
9	3592	88	1.1100035859178
9	3756	89	1.1100012727779
9	3758	90	0.973
9	3926	91	0.973
9	3928	92	0.973
9	4099	93	0.973
9	4101	94	0.973
9	4280	95	0.973
9	4282	96	0.973
9	4462	97	0.973
9	4464	98	0.973
9	4644	99	0.973
9	4646	100	0.973
9	4829	101	0.973
9	4831	102	0.973
10	60	7	2414.8848622198
10	62	8	2412.0691307599
10	87	9	2407.3819784434
10	89	10	2402.4639103656
10	119	11	2396.2016479742
10	121	12	2388.5021761758
10	151	13	2379.5347220144
10	153	14	2369.7521497252
10	189	15	2359.9648396304
10	191	16	2350.1637192596
10	231	17	2340.717056727
10	233	18	2334.4889366638
10	273	19	2338.0188398167
10	275	20	2348.6970945761
10	320	21	2359.0578910074
10	322	22	2372.1753142256
10	369	23	2385.9847009928
10	371	24	2399.0560799135
10	418	25	2411.469456295
10	420	26	2420.8240344936
10	470	27	2428.2511095385
10	472	28	2431.5096723901
10	523	29	2433.2168502312
10	525	30	2435.2011956087
10	576	31	2437.29147981
10	578	32	2438.672857787
10	637	33	2439.5458305131
10	639	34	2440.5569901068
10	700	35	2441.5662171456
10	702	36	2442.5764760413
10	767	37	2443.5864360537
10	769	38	2444.5969193554
10	839	39	2445.6077267987
10	841	40	2446.6171177449
10	909	41	2447.6285385494
10	911	42	2448.6389437378
10	986	43	2449.6489775468
10	988	44	2450.659299592
10	1071	45	2449.5461587089
10	1073	46	2448.4337074455
10	1154	47	2447.3207898499
10	1156	48	2446.207873206
10	1236	49	2445.0940501215
10	1238	50	2443.9833638043
10	1318	51	2442.8694501355
10	1320	52	2441.7571938549
10	1409	53	2440.6460889142
10	1411	54	2439.6824932018
10	1504	55	2438.741084579
10	1506	56	2437.8178922307
10	1604	57	2432.628875918
10	1606	58	2422.099758557
10	1713	59	2408.9617932498
10	1715	60	2395.0275024913
10	1820	61	2381.1194986589
10	1822	62	2367.2108877165
10	1929	63	2353.2913366285
10	1931	64	2339.3363710896
10	2045	65	2325.3913249692
10	2047	66	2311.4476897647
10	2166	67	2297.4983647275
10	2168	68	2283.5801531249
10	2288	69	2269.6389171832
10	2290	70	2255.7127677456
10	2418	71	2241.8359768615
10	2420	72	2228.0496562888
10	2552	73	2214.3204117303
10	2555	74	2201.130388199
10	2691	75	2187.9466372953
10	2693	76	2175.8540693277
10	2835	77	2166.8951848735
10	2837	78	2160.0560415246
10	2982	79	2155.1967882412
10	2984	80	2152.0658747323
10	3133	81	2150.332577554
10	3135	82	2149.5013543733
10	3285	83	2149.1536897024
10	3287	84	2149.0206824628
10	3435	85	2148.970440554
10	3437	86	2148.9516145713
10	3590	87	2148.9445340966
10	3592	88	2148.9418844085
10	3756	89	2148.9408915628
10	3758	90	2148.9405195947
10	3926	91	2148.9403842667
10	3928	92	2148.9403354223
10	4099	93	2148.9403177497
10	4101	94	2148.9403159113
10	4280	95	2148.9403159113
10	4282	96	2148.9403159113
10	4462	97	2148.9403159113
10	4464	98	2148.9403159113
10	4644	99	2148.9403159113
10	4646	100	2148.9403159113
10	4829	101	2148.9403159113
10	4831	102	2148.9403159113
11	60	7	1578.4476927174
11	62	8	1579.4816146148
11	87	9	1581.3305685576
11	89	10	1586.311893981
11	119	11	1592.6547030602
11	121	12	1600.4532072712
11	151	13	1609.5360029312
11	153	14	1619.4444009606
11	189	15	1629.3575977338
11	191	16	1639.2847824143
11	231	17	1649.4765304932
11	233	18	1661.4854336744
11	273	19	1673.8446300924
11	275	20	1682.7957309801
11	320	21	1692.1393567109
11	322	22	1695.6439150097
11	369	23	1697.4374776948
11	371	24	1698.6863156371
11	418	25	1699.860083269
11	420	26	1700.7446211064
11	470	27	1701.4003788568
11	472	28	1709.757081449
11	523	29	1720.9911797
11	525	30	1734.0491812732
11	576	31	1747.8043141738
11	578	32	1761.6824669717
11	637	33	1775.5982529195
11	639	34	1789.5036912933
11	700	35	1803.3825532272
11	702	36	1817.2756052278
11	767	37	1831.1645469936
11	769	38	1845.0606850199
11	839	39	1858.9612806309
11	841	40	1872.8423966132
11	909	41	1886.7514271513
11	911	42	1900.646490965
11	986	43	1914.536447579
11	988	44	1928.4487420022
11	1071	45	1942.3421864314
11	1073	46	1956.2270235084
11	1154	47	1970.117681019
11	1156	48	1984.0083266487
11	1236	49	1997.9102858361
11	1238	50	2011.7730940934
11	1318	51	2025.6761838896
11	1320	52	2039.5585873295
11	1409	53	2053.4266205495
11	1411	54	2067.3284383547
11	1504	55	2081.2374921273
11	1506	56	2095.1151711773
11	1604	57	2107.8121583294
11	1606	58	2116.6019557538
11	1713	59	2120.9589145361
11	1715	60	2120.4882719275
11	1820	61	2120.0185171831
11	1822	62	2119.548741932
11	1929	63	2119.0785971684
11	1931	64	2118.6072562514
11	2045	65	2118.1362503711
11	2047	66	2117.6652921457
11	2166	67	2117.1941417418
11	2168	68	2116.724042221
11	2288	69	2116.2531650327
11	2290	70	2115.7827974036
11	2418	71	2114.7194869779
11	2420	72	2112.7644801643
11	2552	73	2110.4801872596
11	2555	74	2106.0067454157
11	2691	75	2101.5354309557
11	2693	76	2096.841327128
11	2835	77	2091.5673733056
11	2837	78	2087.5412776032
11	2982	79	2084.6807119204
11	2984	80	2082.8375925729
11	3133	81	2081.8172278916
11	3135	82	2081.3278999301
11	3285	83	2081.1232352275
11	3287	84	2081.0449359659
11	3435	85	2081.0153593477
11	3437	86	2081.0042767888
11	3590	87	2081.0001086248
11	3592	88	2080.9985487955
11	3756	89	2080.9979643226
11	3758	90	2080.9977453509
11	3926	91	2080.9976656856
11	3928	92	2080.9976369319
11	4099	93	2080.9976265281
11	4101	94	2080.9976254459
11	4280	95	2080.9976254459
11	4282	96	2080.9976254459
11	4462	97	2080.9976254459
11	4464	98	2080.9976254459
11	4644	99	2080.9976254459
11	4646	100	2080.9976254459
11	4829	101	2080.9976254459
11	4831	102	2080.9976254459
12	62	8	3.930963162637
12	87	9	5.9263112237273
12	89	10	7.8381960794392
12	119	11	9.790430662247
12	121	12	11.728100012452
12	151	13	13.629514704516
12	153	14	13.941568216505
12	189	15	13.881279769889
12	191	16	13.897868440901
12	231	17	13.925429278756
12	233	18	13.988464023101
12	273	19	13.968606978769
12	275	20	13.918509052745
12	320	21	13.924308654484
12	322	22	13.951645852409
12	369	23	13.87926841794
12	371	24	12.793519969494
12	418	25	11.84351296104
12	420	26	7.4038563960913
12	470	27	8.4727548549238
12	472	28	10.367830629347
12	523	29	12.18869854925
12	525	30	13.961659159465
12	576	31	13.954832898835
12	578	32	13.985199820679
12	637	33	13.894128147855
12	639	34	13.93747920732
12	700	35	13.922516686122
12	702	36	13.936551663636
12	767	37	13.899921349036
12	769	38	13.905686459227
12	839	39	13.974518650502
12	841	40	13.926188751743
12	909	41	13.91506882193
12	911	42	13.902084701743
12	986	43	13.906688486487
12	988	44	13.974945872892
12	1071	45	13.897515056985
12	1073	46	13.921723058985
12	1154	47	13.971591069859
12	1156	48	13.925448836959
12	1236	49	13.871581884674
12	1238	50	13.876423048137
12	1318	51	13.873938687814
12	1320	52	13.902598275633
12	1409	53	13.87539361449
12	1411	54	13.972987024514
12	1504	55	13.957628285089
12	1506	56	13.950985880545
12	1604	57	13.943263569523
12	1606	58	13.891897078918
12	1713	59	13.874182712052
12	1715	60	13.982985400616
12	1820	61	13.927164004399
12	1822	62	13.899862960158
12	1929	63	13.960168966714
12	1931	64	13.961850514959
12	2045	65	13.962242161995
12	2047	66	13.925234322341
12	2166	67	13.991972472956
12	2168	68	13.975208927125
12	2288	69	13.946616810667
12	2290	70	13.894927249895
12	2418	71	13.997537077854
12	2420	72	13.937148143742
12	2552	73	13.949254455173
12	2555	74	13.997392567724
12	2691	75	13.892845066143
12	2693	76	11.787824280837
12	2835	77	9.2477227385416
12	2837	78	6.86540096584
12	2982	79	4.7046209588023
12	2984	80	2.8641315859363
12	3133	81	1.435280022115
12	3135	82	0.62780889662581
12	3285	83	0.25782569870556
12	3287	84	0.096787157257653
12	3435	85	0.035636258771308
12	3437	86	0.013565543513394
12	3590	87	0.0050639734029256
12	3592	88	0.0018787172702089
12	3756	89	0.00070582553049211
12	3758	90	0.00026406233787358
12	3926	91	9.3151448616844e-05
12	3928	92	3.3809168557487e-05
12	4099	93	1.2560654992417e-05
12	4101	94	0
12	4280	95	0
12	4282	96	0
12	4462	97	0
12	4464	98	0
12	4644	99	0
12	4646	100	0
12	4829	101	0
12	4831	102	0
13	87	9	1.9953480610903
13	89	10	1.9118848557118
13	119	11	1.9522345828079
13	121	12	1.9376693502045
13	151	13	1.9014146920643
13	153	14	0.31205351198868
13	189	15	-0.060288446615449
13	191	16	0.016588671011849
13	231	17	0.027560837855562
13	233	18	0.063034744344186
13	273	19	-0.019857044331729
13	275	20	-0.050097926023881
13	320	21	0.0057996017392714
13	322	22	0.027337197924499
13	369	23	-0.072377434468363
13	371	24	-1.0857484484466
13	418	25	-0.95000700845353
13	420	26	-4.439656564949
13	470	27	1.0688984588324
13	472	28	1.8950757744233
13	523	29	1.8208679199032
13	525	30	1.7729606102145
13	576	31	-0.0068262606300422
13	578	32	0.03036692184396
13	637	33	-0.091071672823745
13	639	34	0.043351059465204
13	700	35	-0.01496252119774
13	702	36	0.014034977513365
13	767	37	-0.036630314600188
13	769	38	0.0057651101914225
13	839	39	0.068832191275433
13	841	40	-0.048329898759256
13	909	41	-0.01111992981285
13	911	42	-0.012984120186884
13	986	43	0.0046037847432316
13	988	44	0.068257386405021
13	1071	45	-0.077430815906265
13	1073	46	0.02420800199965
13	1154	47	0.049868010873906
13	1156	48	-0.046142232900019
13	1236	49	-0.053866952285171
13	1238	50	0.0048411634634249
13	1318	51	-0.0024843603232867
13	1320	52	0.028659587819128
13	1409	53	-0.027204661143477
13	1411	54	0.09759341002442
13	1504	55	-0.015358739425428
13	1506	56	-0.0066424045432356
13	1604	57	-0.007722311022226
13	1606	58	-0.051366490605288
13	1713	59	-0.017714366866276
13	1715	60	0.10880268856417
13	1820	61	-0.055821396217215
13	1822	62	-0.027301044240593
13	1929	63	0.06030600655591
13	1931	64	0.0016815482452515
13	2045	65	0.00039164703572148
13	2047	66	-0.037007839654107
13	2166	67	0.066738150615711
13	2168	68	-0.0167635458312
13	2288	69	-0.028592116457874
13	2290	70	-0.051689560771921
13	2418	71	0.10260982795851
13	2420	72	-0.060388934111689
13	2552	73	0.01210631143069
13	2555	74	0.048138112551532
13	2691	75	-0.10454750158125
13	2693	76	-2.1050207853061
13	2835	77	-2.5401015422956
13	2837	78	-2.3823217727016
13	2982	79	-2.1607800070377
13	2984	80	-1.840489372866
13	3133	81	-1.4288515638212
13	3135	82	-0.80747112548923
13	3285	83	-0.36998319792025
13	3287	84	-0.1610385414479
13	3435	85	-0.061150898486345
13	3437	86	-0.022070715257914
13	3590	87	-0.0085015701104686
13	3592	88	-0.0031852561327167
13	3756	89	-0.0011728917397168
13	3758	90	-0.00044176319261853
13	3926	91	-0.00017091088925674
13	3928	92	-5.9342280059357e-05
13	4099	93	-2.124851356507e-05
13	4101	94	-1.2560654992417e-05
13	4280	95	0
13	4282	96	0
13	4462	97	0
13	4464	98	0
13	4644	99	0
13	4646	100	0
13	4829	101	0
13	4831	102	0
14	87	9	4.2649508166984
14	89	10	5.1441608835298
14	119	11	6.2752675611406
14	121	12	7.3015557220543
14	151	13	8.2469806235914
14	153	14	3.0813423760871
14	189	15	1.825038103975
14	191	16	2.0839753981971
14	231	17	2.1237162576214
14	233	18	2.2501690272635
14	273	19	1.9687844028223
14	275	20	1.8624692368163
14	320	21	2.0505690853877
14	322	22	2.1258147014109
14	369	23	1.7844264067381
14	371	24	0.973
14	418	25	0.973
14	420	26	0.973
14	470	27	3.7575341079103
14	472	28	6.4482222684255
14	523	29	7.2140195323343
14	525	30	8.0005078452345
14	576	31	2.0112657729674
14	578	32	2.1396802881933
14	637	33	1.7230808185304
14	639	34	2.1780640158967
14	700	35	1.980720158986
14	702	36	2.0794954629949
14	767	37	1.9059152732614
14	769	38	2.0485298427513
14	839	39	2.2680539427787
14	841	40	1.8690933945628
14	909	41	1.9928741031296
14	911	42	1.9853406570184
14	986	43	2.0447410785649
14	988	44	2.2661688405632
14	1071	45	1.7690384486571
14	1073	46	2.1120645090544
14	1154	47	2.2038504354464
14	1156	48	1.8763684319447
14	1236	49	1.8456610488087
14	1238	50	2.0424227277346
14	1318	51	2.0176736696174
14	1320	52	2.1249196677245
14	1409	53	1.9351566644326
14	1411	54	2.3647248781457
14	1504	55	1.9828454643184
14	1506	56	2.0114971183472
14	1604	57	2.007091813677
14	1606	58	1.8558336695686
14	1713	59	1.9667740746073
14	1715	60	2.4037578966905
14	1820	61	1.844036691971
14	1822	62	1.9371616602798
14	1929	63	2.2376623461065
14	1931	64	2.0405988072341
14	2045	65	2.0362986285583
14	2047	66	1.9070037954822
14	2166	67	2.2630700095878
14	2168	68	1.9798474403324
14	2288	69	1.9372818212763
14	2290	70	1.8550225742329
14	2418	71	2.3847397299678
14	2420	72	1.8295794064806
14	2552	73	2.0743518631084
14	2555	74	2.2009680002035
14	2691	75	1.6778590032699
14	2693	76	0.973
14	2835	77	0.973
14	2837	78	0.973
14	2982	79	0.973
14	2984	80	0.973
14	3133	81	0.973
14	3135	82	0.973
14	3285	83	0.973
14	3287	84	0.973
14	3435	85	1.1111939126964
14	3437	86	1.1105822463489
14	3590	87	1.1102339106232
14	3592	88	1.1100891871306
14	3756	89	1.1100338495101
14	3758	90	1.1100127102538
14	3926	91	1.110004489789
14	3928	92	1.1100016304708
14	4099	93	1.1100006058617
14	4101	94	0.973
14	4280	95	0.973
14	4282	96	0.973
14	4462	97	0.973
14	4464	98	0.973
14	4644	99	0.973
14	4646	100	0.973
14	4829	101	0.973
14	4831	102	0.973
15	89	10	2414.8652957816
15	119	11	2411.9402292009
15	121	12	2407.1594214574
15	151	13	2402.0350675649
15	153	14	2395.5354035812
15	189	15	2387.5598131203
15	191	16	2378.2983909701
15	231	17	2368.4972038758
15	233	18	2358.719633554
15	273	19	2348.9248444787
15	275	20	2339.614370346
15	320	21	2334.1997176057
15	322	22	2339.4193692133
15	369	23	2350.023330241
15	371	24	2360.3662725991
15	418	25	2373.90233667
15	420	26	2387.7152259793
15	470	27	2400.5914429313
15	472	28	2412.9398871803
15	523	29	2421.7139854309
15	525	30	2429.0882121673
15	576	31	2431.6639768599
15	578	32	2433.4302155024
15	637	33	2435.4611475593
15	639	34	2437.5533698815
15	700	35	2438.7684759141
15	702	36	2439.671540139
15	767	37	2440.6813741141
15	769	38	2441.6917844916
15	839	39	2442.7022041357
15	841	40	2443.7124593587
15	909	41	2444.7229332504
15	911	42	2445.7337078364
15	986	43	2446.7459111849
15	988	44	2447.757486716
15	1071	45	2448.7683903823
15	1073	46	2449.7777371067
15	1154	47	2450.5176811377
15	1156	48	2449.4057673637
15	1236	49	2448.2921364765
15	1238	50	2447.1808208324
15	1318	51	2446.0691226661
15	1320	52	2444.9566500478
15	1409	53	2443.8447802094
15	1411	54	2442.731477023
15	1504	55	2441.6197022425
15	1506	56	2440.5080080784
15	1604	57	2439.5670555097
15	1606	58	2438.6556009268
15	1713	59	2437.5062560235
15	1715	60	2431.5722499692
15	1820	61	2420.527699944
15	1822	62	2407.2382113171
15	1929	63	2393.3269784888
15	1931	64	2379.3955530388
15	2045	65	2365.4745847809
15	2047	66	2351.529199079
15	2166	67	2337.6079130118
15	2168	68	2323.6725767179
15	2288	69	2309.7385225614
15	2290	70	2295.8080973643
15	2418	71	2281.8952010303
15	2420	72	2267.9654732505
15	2552	73	2254.0466482575
15	2555	74	2240.1839215464
15	2691	75	2226.3952670011
15	2693	76	2212.7433891206
15	2835	77	2199.5532363574
15	2837	78	2186.6275330838
15	2982	79	2175.9886347088
15	2984	80	2168.1516067662
15	3133	81	2162.2726257491
15	3135	82	2158.2011129982
15	3285	83	2155.6801527158
15	3287	84	2154.3186951779
15	3435	85	2153.678918281
15	3437	86	2153.4155323968
15	3590	87	2153.3141532131
15	3592	88	2153.2745719261
15	3756	89	2153.2593924446
15	3758	90	2153.2536030475
15	3926	91	2153.2513771506
15	3928	92	2153.250521
15	4099	93	2153.2501948733
15	4101	94	2153.2500716704
15	4280	95	2153.2500274283
15	4282	96	2153.2500117157
15	4462	97	2153.2500108459
15	4464	98	2153.2500108459
15	4644	99	2153.2500108459
15	4646	100	2153.2500108459
15	4829	101	2153.2500108459
15	4831	102	2153.2500108459
16	89	10	1578.4548774119
16	119	11	1579.5289465943
16	121	12	1581.5559881236
16	151	13	1586.7462526578
16	153	14	1593.3295168448
16	189	15	1601.4076912217
16	191	16	1610.7882359559
16	231	17	1620.7154882178
16	233	18	1630.6188199436
16	273	19	1640.5395918936
16	275	20	1650.8881406859
16	320	21	1663.2272230769
16	322	22	1674.9756418047
16	369	23	1683.991763521
16	371	24	1693.3192880014
16	418	25	1695.9020503219
16	420	26	1697.6139621651
16	470	27	1698.8314944636
16	472	28	1699.9991223291
16	523	29	1700.8287719106
16	525	30	1701.8119543158
16	576	31	1710.77248332
16	578	32	1722.3952316754
16	637	33	1735.7597972872
16	639	34	1749.5276840087
16	700	35	1763.4065813264
16	702	36	1777.3270081691
16	767	37	1791.2142166747
16	769	38	1805.1093518483
16	839	39	1819.0046144547
16	841	40	1832.8976159496
16	909	41	1846.7936245678
16	911	42	1860.6937683271
16	986	43	1874.6135603888
16	988	44	1888.5247187214
16	1071	45	1902.4266375881
16	1073	46	1916.3071454344
16	1154	47	1930.2163243052
16	1156	48	1944.0944528161
16	1236	49	1957.9940131316
16	1238	50	1971.8646762054
16	1318	51	1985.7401136523
16	1320	52	1999.6252172682
16	1409	53	2013.5027974071
16	1411	54	2027.3982675895
16	1504	55	2041.2746612821
16	1506	56	2055.1500487765
16	1604	57	2069.0339985425
16	1606	58	2082.9232102502
16	1713	59	2096.7668430749
16	1715	60	2109.1502521159
16	1820	61	2117.3046830418
16	1822	62	2120.90069908
16	1929	63	2120.4308352731
16	1931	64	2119.9602894429
16	2045	65	2119.4900968131
16	2047	66	2119.0190794626
16	2166	67	2118.5488760993
16	2168	68	2118.0781981768
16	2288	69	2117.6075635599
16	2290	70	2117.1370515134
16	2418	71	2116.6671315199
16	2420	72	2116.1966430303
16	2552	73	2115.7265227912
16	2555	74	2114.4852127647
16	2691	75	2112.5298749758
16	2693	76	2109.945334618
16	2835	77	2105.4718489451
16	2837	78	2101.0880522262
16	2982	79	2096.9205436436
16	2984	80	2092.3070090357
16	3133	81	2088.846145737
16	3135	82	2086.4493104676
16	3285	83	2084.9652609546
16	3287	84	2084.1637923988
16	3435	85	2083.7871658411
16	3437	86	2083.6321147298
16	3590	87	2083.5724344049
16	3592	88	2083.5491335262
16	3756	89	2083.5401976053
16	3758	90	2083.5367894787
16	3926	91	2083.5354791284
16	3928	92	2083.5349751255
16	4099	93	2083.5347831398
16	4101	94	2083.5347106121
16	4280	95	2083.5346845677
16	4282	96	2083.5346753178
16	4462	97	2083.5346748056
16	4464	98	2083.5346748056
16	4644	99	2083.5346748056
16	4646	100	2083.5346748056
16	4829	101	2083.5346748056
16	4831	102	2083.5346748056
17	119	11	4.0076977833542
17	121	12	6.1677344774264
17	151	13	8.1549676716625
17	153	14	10.178332106699
17	189	15	12.262859039094
17	191	16	13.909239285488
17	231	17	13.972104677679
17	233	18	13.964405047395
17	273	19	13.904001857305
17	275	20	13.959390929798
17	320	21	13.878038117993
17	322	22	13.946876353603
17	369	23	13.944667257406
17	371	24	13.919344021892
17	418	25	13.927560248445
17	420	26	13.871213583788
17	470	27	12.691334807668
17	472	28	11.253789109264
17	523	29	6.8021452137647
17	525	30	8.5806848426844
17	576	31	10.511503565412
17	578	32	12.634297992723
17	637	33	13.965718502484
17	639	34	13.984844662666
17	700	35	13.956789441942
17	702	36	13.956542154332
17	767	37	13.917345386401
17	769	38	13.978046209081
17	839	39	13.982312166321
17	841	40	13.915473192113
17	909	41	13.879970237834
17	911	42	13.897895857247
17	986	43	13.999869057706
17	988	44	13.978634591533
17	1071	45	13.942230677728
17	1073	46	13.955766034983
17	1154	47	13.950300372976
17	1156	48	13.917481608128
17	1236	49	13.942320762996
17	1238	50	13.893100212866
17	1318	51	13.91633811252
17	1320	52	13.928179549885
17	1409	53	13.968941585214
17	1411	54	13.947614409933
17	1504	55	13.993828555658
17	1506	56	13.915365449623
17	1604	57	13.876728287677
17	1606	58	13.918426910553
17	1713	59	13.974088552413
17	1715	60	13.92781890474
17	1820	61	13.871840020602
17	1822	62	13.950818891171
17	1929	63	13.896373478309
17	1931	64	13.98123223257
17	2045	65	13.934642261642
17	2047	66	13.995758003502
17	2166	67	13.879077432866
17	2168	68	13.899420192223
17	2288	69	13.964884717481
17	2290	70	13.997399434138
17	2418	71	13.963054893557
17	2420	72	13.99507131309
17	2552	73	13.959758597296
17	2555	74	13.999156328384
17	2691	75	13.969890658425
17	2693	76	13.980162032277
17	2835	77	13.896995161234
17	2837	78	12.895918457595
17	2982	79	10.316482094486
17	2984	80	8.1005376777642
17	3133	81	5.8820015731492
17	3135	82	3.8731803985188
17	3285	83	2.2660461003021
17	3287	84	1.1103220699793
17	3435	85	0.49973008570276
17	3437	86	0.19564597656583
17	3590	87	0.072656340015803
17	3592	88	0.02889018793561
17	3756	89	0.011199915834752
17	3758	90	0.0042896108442745
17	3926	91	0.0015860882725188
17	3928	92	0.00061948919181399
17	4099	93	0.00023260561173226
17	4101	94	8.6047036281624e-05
17	4280	95	3.144975391383e-05
17	4282	96	1.1232174912716e-05
17	4462	97	0
17	4464	98	0
17	4644	99	0
17	4646	100	0
17	4829	101	0
17	4831	102	0
18	121	12	2.1600366940722
18	151	13	1.9872331942362
18	153	14	2.0233644350362
18	189	15	2.0845269323955
18	191	16	1.6463802463939
18	231	17	0.062865392190869
18	233	18	-0.0076996302837493
18	273	19	-0.060403190089856
18	275	20	0.055389072492252
18	320	21	-0.081352811804972
18	322	22	0.068838235610166
18	369	23	-0.0022090961970385
18	371	24	-0.025323235513643
18	418	25	0.0082162265526122
18	420	26	-0.056346664656886
18	470	27	-1.1798787761197
18	472	28	-1.4375456984038
18	523	29	-4.4516438954996
18	525	30	1.7785396289197
18	576	31	1.9308187227277
18	578	32	2.1227944273106
18	637	33	1.3314205097611
18	639	34	0.01912616018206
18	700	35	-0.028055220723617
18	702	36	-0.00024728761054682
18	767	37	-0.039196767930406
18	769	38	0.060700822679792
18	839	39	0.0042659572395483
18	841	40	-0.06683897420764
18	909	41	-0.035502954279073
18	911	42	0.017925619413145
18	986	43	0.10197320045903
18	988	44	-0.021234466172753
18	1071	45	-0.036403913805263
18	1073	46	0.013535357255023
18	1154	47	-0.0054656620067544
18	1156	48	-0.032818764848635
18	1236	49	0.024839154868388
18	1238	50	-0.049220550130123
18	1318	51	0.023237899653614
18	1320	52	0.011841437364929
18	1409	53	0.040762035329827
18	1411	54	-0.021327175281478
18	1504	55	0.046214145724662
18	1506	56	-0.078463106034324
18	1604	57	-0.038637161946388
18	1606	58	0.041698622875845
18	1713	59	0.055661641859915
18	1715	60	-0.046269647672306
18	1820	61	-0.055978884138167
18	1822	62	0.078978870569262
18	1929	63	-0.054445412862115
18	1931	64	0.084858754260932
18	2045	65	-0.046589970928617
18	2047	66	0.061115741860121
18	2166	67	-0.11668057063594
18	2168	68	0.0203427593573
18	2288	69	0.065464525257703
18	2290	70	0.032514716656879
18	2418	71	-0.034344540580641
18	2420	72	0.032016419533175
18	2552	73	-0.035312715794426
18	2555	74	0.039397731088101
18	2691	75	-0.029265669959132
18	2693	76	0.010271373852158
18	2835	77	-0.083166871042923
18	2837	78	-1.0010767036393
18	2982	79	-2.5794363631086
18	2984	80	-2.2159444167219
18	3133	81	-2.218536104615
18	3135	82	-2.0088211746303
18	3285	83	-1.6071342982168
18	3287	84	-1.1557240303228
18	3435	85	-0.61059198427652
18	3437	86	-0.30408410913693
18	3590	87	-0.12298963655003
18	3592	88	-0.043766152080193
18	3756	89	-0.017690272100858
18	3758	90	-0.0069103049904777
18	3926	91	-0.0027035225717557
18	3928	92	-0.00096659908070479
18	4099	93	-0.00038688358008173
18	4101	94	-0.00014655857545063
18	4280	95	-5.4597282367795e-05
18	4282	96	-2.0217579001114e-05
18	4462	97	-1.1232174912716e-05
18	4464	98	0
18	4644	99	0
18	4646	100	0
18	4829	101	0
18	4831	102	0
19	121	12	4.6399364442395
19	151	13	5.459099048015
19	153	14	6.6616810382017
19	189	15	8.0324172249288
19	191	16	7.5484463594625
19	231	17	2.247674957111
19	233	18	2.0092894812461
19	273	19	1.8266349661585
19	275	20	2.2210298717235
19	320	21	1.7543037306746
19	322	22	2.264789170887
19	369	23	2.0257606197441
19	371	24	1.9456524984792
19	418	25	2.059016748537
19	420	26	1.8373388380236
19	470	27	0.973
19	472	28	0.973
19	523	29	0.973
19	525	30	5.2602175796137
19	576	31	6.6156566027659
19	578	32	8.3694083781091
19	637	33	6.5165491496521
19	639	34	2.1017560319966
19	700	35	1.9400571066544
19	702	36	2.0335662245147
19	767	37	1.8989280401226
19	769	38	2.2410813776431
19	839	39	2.0514099723484
19	841	40	1.8060532207838
19	909	41	1.9078333116417
19	911	42	2.0884562634303
19	986	43	2.3828885778754
19	988	44	1.9651224554136
19	1071	45	1.910615850939
19	1073	46	2.0798426520326
19	1154	47	2.015384407742
19	1156	48	1.9203331804895
19	1236	49	2.1164070517746
19	1238	50	1.8631262853673
19	1318	51	2.108230627045
19	1320	52	2.0712498573739
19	1409	53	2.1728920736305
19	1411	54	1.9617970432444
19	1504	55	2.1940726512002
19	1506	56	1.7670612526642
19	1604	57	1.8970499029483
19	1606	58	2.1703787731
19	1713	59	2.2236475952785
19	1715	60	1.876156120652
19	1820	61	1.8386234882413
19	1822	62	2.2993516664104
19	1929	63	1.8459222947006
19	1931	64	2.3228538313892
19	2045	65	1.8757004712267
19	2047	66	2.2445546956586
19	2166	67	1.6362226447506
19	2168	68	2.096714827559
19	2288	69	2.2555743425322
19	2290	70	2.1482652379368
19	2418	71	1.9194912088098
19	2420	72	2.1463276308042
19	2552	73	1.9159241804067
19	2555	74	2.1716810577018
19	2691	75	1.9372331757794
19	2693	76	2.0714211235731
19	2835	77	1.7497841862042
19	2837	78	0.973
19	2982	79	0.973
19	2984	80	0.973
19	3133	81	0.973
19	3135	82	0.973
19	3285	83	0.973
19	3287	84	0.973
19	3435	85	0.973
19	3437	86	0.973
19	3590	87	0.973
19	3592	88	1.1110889415151
19	3756	89	1.110492534846
19	3758	90	1.1101997869873
19	3926	91	1.1100754794845
19	3928	92	1.1100297398484
19	4099	93	1.1100111992068
19	4101	94	1.1100041478698
19	4280	95	1.1100015167223
19	4282	96	1.1100005417854
19	4462	97	0.973
19	4464	98	0.973
19	4644	99	0.973
19	4646	100	0.973
19	4829	101	0.973
19	4831	102	0.973
20	151	13	2414.9020294819
20	153	14	2411.9226306152
20	189	15	2407.1557433844
20	191	16	2402.1104710221
20	231	17	2395.7699587477
20	233	18	2388.0304223568
20	273	19	2379.4738079484
20	275	20	2370.893774931
20	320	21	2362.3077945379
20	322	22	2353.7435980395
20	369	23	2345.1609503828
20	371	24	2337.382531011
20	418	25	2333.9513923901
20	420	26	2339.5342791209
20	470	27	2348.8453277851
20	472	28	2357.9087556405
20	523	29	2368.8976739903
20	525	30	2380.9775286298
20	576	31	2393.1030453129
20	578	32	2405.2335576123
20	637	33	2416.5418459401
20	639	34	2423.9663700609
20	700	35	2430.570008137
20	702	36	2432.1000471369
20	767	37	2433.9002697327
20	769	38	2435.9543662666
20	839	39	2437.9596728822
20	841	40	2438.9494181712
20	909	41	2439.9070256213
20	911	42	2440.9176562928
20	986	43	2441.9269052453
20	988	44	2442.9366141059
20	1071	45	2443.9464281293
20	1073	46	2444.9573541252
20	1154	47	2445.9691156872
20	1156	48	2446.979716951
20	1236	49	2447.9896090399
20	1238	50	2448.9998733379
20	1318	51	2450.0085675253
20	1320	52	2450.2645866362
20	1409	53	2449.1499465979
20	1411	54	2448.0369973981
20	1504	55	2446.9233345203
20	1506	56	2445.8120863364
20	1604	57	2444.7009855164
20	1606	58	2443.5879624323
20	1713	59	2442.4739204658
20	1715	60	2441.3600381962
20	1820	61	2440.2864050268
20	1822	62	2439.3445139695
20	1929	63	2438.5901630576
20	1931	64	2436.8932832642
20	2045	65	2429.488703159
20	2047	66	2417.5025738811
20	2166	67	2403.9129781366
20	2168	68	2389.9861979192
20	2288	69	2376.0739265668
20	2290	70	2362.1500415469
20	2418	71	2348.2060115275
20	2420	72	2334.2734054149
20	2552	73	2320.3213743683
20	2555	74	2306.390282625
20	2691	75	2292.4858088302
20	2693	76	2278.5482186148
20	2835	77	2264.6132597643
20	2837	78	2250.6824459058
20	2982	79	2236.8438325393
20	2984	80	2223.0330148104
20	3133	81	2209.5218306775
20	3135	82	2196.3177326269
20	3285	83	2183.693116775
20	3287	84	2174.0416856013
20	3435	85	2167.2818817057
20	3437	86	2162.71175364
20	3590	87	2159.9769870267
20	3592	88	2158.5746910878
20	3756	89	2157.9475926691
20	3758	90	2157.702537205
20	3926	91	2157.6121599022
20	3928	92	2157.5789576767
20	4099	93	2157.5667994937
20	4101	94	2157.5623236503
20	4280	95	2157.5606581948
20	4282	96	2157.5600474938
20	4462	97	2157.5598237769
20	4464	98	2157.5597431303
20	4644	99	2157.5597140451
20	4646	100	2157.5597056779
20	4829	101	2157.5597056779
20	4831	102	2157.5597056779
21	151	13	1578.4413889889
21	153	14	1579.5354087027
21	189	15	1581.5597135043
21	191	16	1586.6698793434
21	231	17	1593.0919447746
21	233	18	1600.9310288979
21	273	19	1609.5977004888
21	275	20	1618.2880919036
21	320	21	1626.984507191
21	322	22	1635.6588583943
21	369	23	1644.3518980779
21	371	24	1653.7452424029
21	418	25	1665.1186078088
21	420	26	1675.0684384657
21	470	27	1682.929411401
21	472	28	1691.1030376544
21	523	29	1695.1540113101
21	525	30	1696.8415124407
21	576	31	1698.123416462
21	578	32	1699.2704374064
21	637	33	1700.3397115832
21	639	34	1700.9751795586
21	700	35	1703.8619754324
21	702	36	1713.6420474732
21	767	37	1725.4884275207
21	769	38	1739.0054271705
21	839	39	1752.7795728892
21	841	40	1766.6691963989
21	909	41	1780.5653979182
21	911	42	1794.4635625677
21	986	43	1808.342725859
21	988	44	1822.2282137927
21	1071	45	1836.1151479203
21	1073	46	1850.0173738636
21	1154	47	1863.9310904881
21	1156	48	1877.8288507257
21	1236	49	1891.7168584093
21	1238	50	1905.6099847034
21	1318	51	1919.4815188777
21	1320	52	1933.3752725068
21	1409	53	1947.287428339
21	1411	54	1961.1784803104
21	1504	55	1975.07843991
21	1506	56	1988.9482609928
21	1604	57	2002.8162427824
21	1606	58	2016.7082169261
21	1713	59	2030.6129080458
21	1715	60	2044.5156059386
21	1820	61	2058.405807049
21	1822	62	2072.3219886608
21	1929	63	2086.2172475774
21	1931	64	2100.0155986995
21	2045	65	2111.7128415443
21	2047	66	2118.6569472738
21	2166	67	2120.7883864809
21	2168	68	2120.3179975469
21	2288	69	2119.8480986627
21	2290	70	2119.3778075166
21	2418	71	2118.9068359565
21	2420	72	2118.436250248
21	2552	73	2117.965008446
21	2555	74	2117.4944738867
21	2691	75	2117.0248383721
21	2693	76	2116.5540843215
21	2835	77	2116.0834191469
21	2837	78	2115.6128939744
21	2982	79	2114.0115623279
21	2984	80	2112.0530816279
21	3133	81	2108.8527319925
21	3135	82	2104.3745167274
21	3285	83	2100.0928348433
21	3287	84	2095.774405445
21	3435	85	2091.7950156257
21	3437	86	2089.1046533929
21	3590	87	2087.4947394682
21	3592	88	2086.6692299908
21	3756	89	2086.3000670532
21	3758	90	2086.1558067705
21	3926	91	2086.1026030798
21	3928	92	2086.0830574539
21	4099	93	2086.0759001235
21	4101	94	2086.0732652647
21	4280	95	2086.0722848373
21	4282	96	2086.0719253272
21	4462	97	2086.0717936289
21	4464	98	2086.0717461538
21	4644	99	2086.0717290314
21	4646	100	2086.0717241056
21	4829	101	2086.0717241056
21	4831	102	2086.0717241056
22	153	14	4.1202440707026
22	189	15	6.098204819389
22	191	16	7.9892263333931
22	231	17	9.9395148638858
22	233	18	11.888312638128
22	273	19	12.215156767303
22	275	20	12.204687935296
22	320	21	12.224623291104
22	322	22	12.210776680999
22	369	23	12.179672799767
22	371	24	12.160016026092
22	418	25	12.139849843977
22	420	26	12.143721937142
22	470	27	12.197962211408
22	472	28	12.182525644068
22	523	29	12.239106989266
22	525	30	12.235862109773
22	576	31	12.230306803957
22	578	32	12.179537976573
22	637	33	9.6862829881538
22	639	34	6.6424673210172
22	700	35	8.8478549035121
22	702	36	10.859035527671
22	767	37	12.909402498856
22	769	38	13.992245385351
22	839	39	13.943547738914
22	841	40	13.916770352069
22	909	41	13.945535122917
22	911	42	13.906703865982
22	986	43	13.929781103753
22	988	44	13.945612282939
22	1071	45	13.915959525181
22	1073	46	13.967522231955
22	1154	47	13.972525620006
22	1156	48	13.883536923684
22	1236	49	13.909812615521
22	1238	50	13.926507747294
22	1318	51	13.897951097498
22	1320	52	13.93396450304
22	1409	53	13.967009024217
22	1411	54	13.893721483571
22	1504	55	13.88568516843
22	1506	56	13.927406547926
22	1604	57	13.918185825639
22	1606	58	13.942741125419
22	1713	59	13.888825567171
22	1715	60	13.956811681101
22	1820	61	13.967852384013
22	1822	62	13.917130999181
22	1929	63	13.962056111419
22	1931	64	13.973261172024
22	2045	65	13.976665152721
22	2047	66	13.929094264333
22	2166	67	13.988442988638
22	2168	68	13.963501574658
22	2288	69	13.904512311171
22	2290	70	13.881385968712
22	2418	71	13.955823229789
22	2420	72	13.91319160128
22	2552	73	13.978148939102
22	2555	74	13.952216081487
22	2691	75	13.876740762778
22	2693	76	13.930089543043
22	2835	77	13.916144249656
22	2837	78	13.998410794288
22	2982	79	13.980069159993
22	2984	80	13.95930730181
22	3133	81	13.968128457202
22	3135	82	13.906429463343
22	3285	83	12.184502506689
22	3287	84	9.3192249987393
22	3435	85	6.6715766769864
22	3437	86	4.2657116295168
22	3590	87	2.3706573523306
22	3592	88	1.1367262909708
22	3756	89	0.4721427191851
22	3758	90	0.17087061469064
22	3926	91	0.063811635136954
22	3928	92	0.024096188599995
22	4099	93	0.0085789835087094
22	4101	94	0.0032882934305194
22	4280	95	0.0012074349591621
22	4282	96	0.00044403026240924
22	4462	97	0.00015569476014245
22	4464	98	5.6592506510574e-05
22	4644	99	1.9919880872917e-05
22	4646	100	0
22	4829	101	0
22	4831	102	0
23	189	15	1.9779607486865
23	191	16	1.8910215140041
23	231	17	1.9502885304927
23	233	18	1.9487977742427
23	273	19	0.32684412917498
23	275	20	-0.010468832007609
23	320	21	0.019935355808121
23	322	22	-0.013846610104666
23	369	23	-0.031103881231974
23	371	24	-0.019656773675234
23	418	25	-0.020166182115208
23	420	26	0.0038720931648282
23	470	27	0.054240274266339
23	472	28	-0.015436567340512
23	523	29	0.056581345198211
23	525	30	-0.0032448794925592
23	576	31	-0.0055553058162339
23	578	32	-0.050768827383871
23	637	33	-2.4932549884193
23	639	34	-3.0438156671366
23	700	35	2.2053875824949
23	702	36	2.0111806241586
23	767	37	2.0503669711854
23	769	38	1.082842886495
23	839	39	-0.048697646437214
23	841	40	-0.026777386844623
23	909	41	0.028764770848211
23	911	42	-0.038831256935373
23	986	43	0.023077237771357
23	988	44	0.015831179185771
23	1071	45	-0.02965275775874
23	1073	46	0.051562706774567
23	1154	47	0.0050033880514082
23	1156	48	-0.088988696322776
23	1236	49	0.026275691837073
23	1238	50	0.016695131773595
23	1318	51	-0.028556649796665
23	1320	52	0.036013405541889
23	1409	53	0.033044521177652
23	1411	54	-0.07328754064627
23	1504	55	-0.0080363151407798
23	1506	56	0.041721379496158
23	1604	57	-0.009220722287429
23	1606	58	0.024555299780332
23	1713	59	-0.053915558247827
23	1715	60	0.067986113929656
23	1820	61	0.01104070291156
23	1822	62	-0.050721384831705
23	1929	63	0.044925112237689
23	1931	64	0.011205060605425
23	2045	65	0.0034039806970405
23	2047	66	-0.047570888388437
23	2166	67	0.059348724305165
23	2168	68	-0.024941413979978
23	2288	69	-0.058989263486584
23	2290	70	-0.023126342459582
23	2418	71	0.07443726107711
23	2420	72	-0.042631628508678
23	2552	73	0.064957337821832
23	2555	74	-0.025932857615407
23	2691	75	-0.075475318708923
23	2693	76	0.053348780265079
23	2835	77	-0.013945293386932
23	2837	78	0.082266544632148
23	2982	79	-0.018341634294485
23	2984	80	-0.02076185818296
23	3133	81	0.0088211553916349
23	3135	82	-0.061698993858881
23	3285	83	-1.7219269566543
23	3287	84	-2.8652775079497
23	3435	85	-2.6476483217528
23	3437	86	-2.4058650474696
23	3590	87	-1.8950542771863
23	3592	88	-1.2339310613598
23	3756	89	-0.6645835717857
23	3758	90	-0.30127210449446
23	3926	91	-0.10705897955369
23	3928	92	-0.039715446536959
23	4099	93	-0.015517205091286
23	4101	94	-0.00529069007819
23	4280	95	-0.0020808584713572
23	4282	96	-0.00076340469675287
23	4462	97	-0.00028833550226679
23	4464	98	-9.9102253631878e-05
23	4644	99	-3.6672625637658e-05
23	4646	100	-1.9919880872917e-05
23	4829	101	0
23	4831	102	0
24	189	15	4.3320714987557
24	191	16	5.183486961616
24	231	17	6.3519610936481
24	233	18	7.4221751260776
24	273	19	2.8298121443499
24	275	20	1.8359013100526
24	320	21	1.9272118037584
24	322	22	1.8264910266966
24	369	23	1.7731570813911
24	371	24	1.8050958468359
24	418	25	1.8019031629654
24	420	26	1.8725806391293
24	470	27	2.0255422754474
24	472	28	1.8193896864997
24	523	29	2.0366725650512
24	525	30	1.8599189826534
24	576	31	1.8526149529095
24	578	32	1.7154241454235
24	637	33	0.973
24	639	34	0.973
24	700	35	6.303427561984
24	702	36	7.0154445701984
24	767	37	8.3105242583869
24	769	38	5.6895407911334
24	839	39	1.8694269918782
24	841	40	1.940528745875
24	909	41	2.1299480592744
24	911	42	1.8991694406835
24	986	43	2.1091372507868
24	988	44	2.0864880630902
24	1071	45	1.9308080812489
24	1073	46	2.2090898398184
24	1154	47	2.0528811368149
24	1156	48	1.7292056532406
24	1236	49	2.1177127068995
24	1238	50	2.0873649665686
24	1318	51	1.9327741224938
24	1320	52	2.1530281120875
24	1409	53	2.1466978352857
24	1411	54	1.7825965253946
24	1504	55	2.0002810933209
24	1506	56	2.1714609797662
24	1604	57	1.999553894506
24	1606	58	2.1154986829051
24	1713	59	1.8470270282863
24	1715	60	2.2631030576132
24	1820	61	2.0727204260443
24	1822	62	1.8602543209442
24	1929	63	2.1861282607859
24	1931	64	2.0738417857687
24	2045	65	2.0479224526271
24	2047	66	1.8719038420292
24	2166	67	2.237740187174
24	2168	68	1.9511766336835
24	2288	69	1.8314175593046
24	2290	70	1.9493699794006
24	2418	71	2.2846833100323
24	2420	72	1.8870266347629
24	2552	73	2.2554324657204
24	2555	74	1.9467570144346
24	2691	75	1.7738534084078
24	2693	76	2.2107965887972
24	2835	77	1.9835051352325
24	2837	78	2.3162204831367
24	2982	79	1.9750085314323
24	2984	80	1.9648337724802
24	3133	81	2.0652777009624
24	3135	82	1.8225039990261
24	3285	83	0.973
24	3287	84	0.973
24	3435	85	0.973
24	3437	86	0.973
24	3590	87	0.973
24	3592	88	0.973
24	3756	89	0.973
24	3758	90	0.973
24	3926	91	0.973
24	3928	92	1.110931766626
24	4099	93	1.1103817678578
24	4101	94	1.1101544345191
24	4280	95	1.1100576411498
24	4282	96	1.1100213383269
24	4462	97	1.1100074998962
24	4464	98	1.1100027286709
24	4644	99	1.110000960759
24	4646	100	0.973
24	4829	101	0.973
24	4831	102	0.973
25	191	16	2414.866372544
25	231	17	2411.9174920589
25	233	18	2407.1873548935
25	273	19	2402.1033929951
25	275	20	2395.6770685576
25	320	21	2387.9239549194
25	322	22	2378.7440047435
25	369	23	2368.9560721758
25	371	24	2359.1622850237
25	418	25	2349.3790714815
25	420	26	2340.0066479368
25	470	27	2334.2982135796
25	472	28	2338.9199148722
25	523	29	2349.5394145362
25	525	30	2359.6285321664
25	576	31	2372.2737052037
25	578	32	2385.1868441795
25	637	33	2397.5486702835
25	639	34	2407.0889696613
25	700	35	2415.9658388555
25	702	36	2423.647086352
25	767	37	2430.5697055
25	769	38	2432.1309365664
25	839	39	2433.9420996767
25	841	40	2436.0121670167
25	909	41	2438.0026650226
25	911	42	2438.973087457
25	986	43	2439.9357083738
25	988	44	2440.9457836029
25	1071	45	2441.9557050534
25	1073	46	2442.966328533
25	1154	47	2443.9770825638
25	1156	48	2444.9875938372
25	1236	49	2445.9973880129
25	1238	50	2447.0079984484
25	1318	51	2448.0195114657
25	1320	52	2449.0300190145
25	1409	53	2450.0409876643
25	1411	54	2450.2291497608
25	1504	55	2449.1158151244
25	1506	56	2448.0031307412
25	1604	57	2446.8896077783
25	1606	58	2445.7771886681
25	1713	59	2444.6627922727
25	1715	60	2443.5487240007
25	1820	61	2442.4356510476
25	1822	62	2441.3226709429
25	1929	63	2440.2525785718
25	1931	64	2439.3108728111
25	2045	65	2438.5962522177
25	2047	66	2436.7990822749
25	2166	67	2429.1662416559
25	2168	68	2417.0518166292
25	2288	69	2403.4340603166
25	2290	70	2389.5047204611
25	2418	71	2375.5916553084
25	2420	72	2361.6469742537
25	2552	73	2347.7140670773
25	2555	74	2333.8022433744
25	2691	75	2319.8734200448
25	2693	76	2305.9398448825
25	2835	77	2292.0082472251
25	2837	78	2278.0813544713
25	2982	79	2264.1467494853
25	2984	80	2250.2047425436
25	3133	81	2236.387523783
25	3135	82	2222.5732599339
25	3285	83	2209.0995266479
25	3287	84	2196.4179653845
25	3435	85	2185.8774806916
25	3437	86	2177.5634707001
25	3590	87	2171.7217195107
25	3592	88	2167.5475199595
25	3756	89	2164.8161268471
25	3758	90	2163.2310487002
25	3926	91	2162.4411792443
25	3928	92	2162.096791285
25	4099	93	2161.9581210931
25	4101	94	2161.9041442371
25	4280	95	2161.8829774752
25	4282	96	2161.8746354431
25	4462	97	2161.8713912201
25	4464	98	2161.8701576825
25	4644	99	2161.8696784208
25	4646	100	2161.8694958295
25	4829	101	2161.8694296258
25	4831	102	2161.8694058611
26	191	16	1578.4544820301
26	231	17	1579.5372955538
26	233	18	1581.5276954006
26	273	19	1586.6770484103
26	275	20	1593.1860297397
26	320	21	1601.0388657451
26	322	22	1610.3368905932
26	369	23	1620.2507178467
26	371	24	1630.1704749865
26	418	25	1640.0795225166
26	420	26	1650.3859643145
26	470	27	1662.6340421
26	472	28	1674.572302388
26	523	29	1683.5553562185
26	525	30	1692.6539752008
26	576	31	1695.658621354
26	578	32	1697.3425149294
26	637	33	1698.5437799906
26	639	34	1699.4458790058
26	700	35	1700.285246267
26	702	36	1700.9566909699
26	767	37	1703.861074903
26	769	38	1713.8453156259
26	839	39	1725.7636898225
26	841	40	1739.3857854959
26	909	41	1753.170717068
26	911	42	1767.0707531869
26	986	43	1780.9598423252
26	988	44	1794.8503685482
26	1071	45	1808.7387800114
26	1073	46	1822.6368457591
26	1154	47	1836.5367068434
26	1156	48	1850.4332295349
26	1236	49	1864.3198907189
26	1238	50	1878.2177770855
26	1318	51	1892.128075731
26	1320	52	1906.0245472016
26	1409	53	1919.9273597188
26	1411	54	1933.8175707525
26	1504	55	1947.7134334734
26	1506	56	1961.6011801884
26	1604	57	1975.4993934687
26	1606	58	1989.3838292314
26	1713	59	2003.2929440839
26	1715	60	2017.1979635302
26	1820	61	2031.0905601038
26	1822	62	2044.9819978084
26	1929	63	2058.9055836303
26	1931	64	2072.8190275338
26	2045	65	2086.7368559008
26	2047	66	2100.5148639437
26	2166	67	2112.1094423961
26	2168	68	2118.8584406646
26	2288	69	2120.7722106203
26	2290	70	2120.3017352335
26	2418	71	2119.8318095375
26	2420	72	2119.3608159879
26	2552	73	2118.8902201112
26	2555	74	2118.4203363461
26	2691	75	2117.9498784048
26	2693	76	2117.4792599659
26	2835	77	2117.0087083196
26	2837	78	2116.5383155849
26	2982	79	2116.0676623629
26	2984	80	2115.596759134
26	3133	81	2113.9468542188
26	3135	82	2111.9878848325
26	3285	83	2108.709506128
26	3287	84	2104.4085110119
26	3435	85	2100.8336693775
26	3437	86	2097.8476247257
26	3590	87	2094.408678038
26	3592	88	2091.9513926711
26	3756	89	2090.3434646726
26	3758	90	2089.4103541952
26	3926	91	2088.9453705186
26	3928	92	2088.7426347649
26	4099	93	2088.6610018117
26	4101	94	2088.629226489
26	4280	95	2088.6167659508
26	4282	96	2088.6118551278
26	4462	97	2088.6099453056
26	4464	98	2088.6092191413
26	4644	99	2088.6089370074
26	4646	100	2088.6088295188
26	4829	101	2088.6087905457
26	4831	102	2088.6087765554
27	231	17	4.11254450365
27	233	18	6.0975231633921
27	273	19	8.1241239797909
27	275	20	10.018434339895
27	320	21	11.94044197294
27	322	22	13.966010854098
27	369	23	13.99429374554
27	371	24	13.992908905046
27	418	25	13.889738958394
27	420	26	13.996094578244
27	470	27	13.943261206169
27	472	28	13.961094655516
27	523	29	13.829256838197
27	525	30	13.436515939642
27	576	31	13.16217219069
27	578	32	12.955925744517
27	637	33	11.26758099839
27	639	34	8.5044873526649
27	700	35	9.3420117710427
27	702	36	6.9079266154914
27	767	37	9.1319836530982
27	769	38	10.970689421588
27	839	39	12.982363875891
27	841	40	13.992697958478
27	909	41	13.936582251703
27	911	42	13.977668084782
27	986	43	13.986179260183
27	988	44	13.884867181559
27	1071	45	13.927137885792
27	1073	46	13.910710662541
27	1154	47	13.909766360957
27	1156	48	13.940070941378
27	1236	49	13.877076953631
27	1238	50	13.90827997843
27	1318	51	13.954862964205
27	1320	52	13.893197995736
27	1409	53	13.963183217549
27	1411	54	13.948198468271
27	1504	55	13.944161438567
27	1506	56	13.928642164022
27	1604	57	13.919632288448
27	1606	58	13.893341971666
27	1713	59	13.941880325
27	1715	60	13.998108282317
27	1820	61	13.878701872779
27	1822	62	13.982008344322
27	1929	63	13.95228849458
27	1931	64	13.945977008874
27	2045	65	13.898765254379
27	2047	66	13.884750159571
27	2166	67	13.956998247474
27	2168	68	13.973321173731
27	2288	69	13.980317651937
27	2290	70	13.967857702158
27	2418	71	13.87017407299
27	2420	72	13.907431576322
27	2552	73	13.990516319459
27	2555	74	13.891874899538
27	2691	75	13.937335884271
27	2693	76	13.921820710613
27	2835	77	13.947281930207
27	2837	78	13.958241502543
27	2982	79	13.924777132559
27	2984	80	13.993273811741
[...]
122	2555	74	4.0735588402093
122	2691	75	5.8290612863471
122	2693	76	7.862662603839
122	2835	77	9.6879727271526
122	2837	78	11.944467225839
122	2982	79	12.953456134841
122	2984	80	12.998777343629
122	3133	81	12.605227840698
122	3135	82	12.014084930552
122	3285	83	11.584700541917
122	3287	84	11.358179795498
122	3435	85	11.081834647454
122	3437	86	10.873275918259
122	3590	87	10.736084915775
122	3592	88	10.63591405961
122	3756	89	10.523848222295
122	3758	90	10.526772059941
122	3926	91	10.452888306051
122	3928	92	10.51179650067
122	4099	93	9.3790595169786
122	4101	94	8.004374790515
122	4280	95	7.873219162175
122	4282	96	7.5998815443674
122	4462	97	9.4599433054384
122	4464	98	11.517685376856
122	4644	99	13.473405913325
122	4646	100	13.683893160937
122	4829	101	13.439311883968
122	4831	102	13.11740460753
123	2691	75	1.7555024461378
123	2693	76	2.0336013174918
123	2835	77	1.8253101233137
123	2837	78	2.2564944986859
123	2982	79	1.0089889090025
123	2984	80	0.045321208788081
123	3133	81	-0.39354950293097
123	3135	82	-0.59114291014626
123	3285	83	-0.42938438863522
123	3287	84	-0.22652074641895
123	3435	85	-0.27634514804333
123	3437	86	-0.20855872919588
123	3590	87	-0.13719100248404
123	3592	88	-0.10017085616436
123	3756	89	-0.11206583731538
123	3758	90	0.0029238376466658
123	3926	91	-0.073883753890836
123	3928	92	0.058908194619304
123	4099	93	-1.1327369836913
123	4101	94	-1.3746847264637
123	4280	95	-0.13115562833998
123	4282	96	-0.27333761780756
123	4462	97	1.860061761071
123	4464	98	2.0577420714172
123	4644	99	1.955720536469
123	4646	100	0.21048724761262
123	4829	101	-0.24458127696914
123	4831	102	-0.32190727643803
124	2691	75	3.8756268936732
124	2693	76	5.3876730590065
124	2835	77	5.9230829630863
124	2837	78	8.3392083846763
124	2982	79	5.0855033372062
124	2984	80	2.0819381521331
124	3133	81	0.973
124	3135	82	0.973
124	3285	83	0.973
124	3287	84	1.1732211916124
124	3435	85	0.973
124	3437	86	1.2067626787784
124	3590	87	1.3872581391992
124	3592	88	1.4774598654094
124	3756	89	1.4411141705942
124	3758	90	1.7329893104806
124	3926	91	1.5336304471824
124	3928	92	1.8736246631636
124	4099	93	0.973
124	4101	94	0.973
124	4280	95	1.2860281489778
124	4282	96	0.973
124	4462	97	5.8852083363397
124	4464	98	7.5185616708945
124	4644	99	8.3363054247112
124	4646	100	2.7009615781327
124	4829	101	1.1903796274538
124	4831	102	0.973
125	2693	76	2414.8732395561
125	2835	77	2411.9082769358
125	2837	78	2407.1655617389
125	2982	79	2402.128447905
125	2984	80	2395.6944575682
125	3133	81	2387.9337748789
125	3135	82	2378.7673655167
125	3285	83	2368.9823548129
125	3287	84	2359.2122518424
125	3435	85	2349.4316794267
125	3437	86	2340.0865105919
125	3590	87	2334.4174806303
125	3592	88	2337.3964307201
125	3756	89	2346.779458549
125	3758	90	2355.4684120667
125	3926	91	2364.8614375427
125	3928	92	2375.8768930668
125	4099	93	2386.6608137578
125	4101	94	2395.9118711601
125	4280	95	2404.9942213678
125	4282	96	2412.8460554772
125	4462	97	2420.9961528053
125	4464	98	2428.303043043
125	4644	99	2431.502013637
125	4646	100	2433.1993047486
125	4829	101	2435.1786210161
125	4831	102	2437.2743745921
126	2693	76	1578.4519604994
126	2835	77	1579.5406792993
126	2837	78	1581.5497688642
126	2982	79	1586.6516712382
126	2984	80	1593.1684170682
126	3133	81	1601.0289194789
126	3135	82	1610.3132293485
126	3285	83	1620.224097156
126	3287	84	1630.1198654827
126	3435	85	1640.0262379153
126	3437	86	1650.2837276859
126	3590	87	1661.9157696376
126	3592	88	1673.341997317
126	3756	89	1681.0663587796
126	3758	90	1688.9022746962
126	3926	91	1694.5507214339
126	3928	92	1696.1971841427
126	4099	93	1697.5142604476
126	4101	94	1698.389009703
126	4280	95	1699.2478065658
126	4282	96	1699.990249915
126	4462	97	1700.7608960429
126	4464	98	1701.42591283
126	4644	99	1709.7066829596
126	4646	100	1720.8757215021
126	4829	101	1733.9006289747
126	4831	102	1747.6917531434
127	2835	77	4.0635240824116
127	2837	78	6.1144633837571
127	2982	79	8.1038544815257
127	2984	80	10.046968652414
127	3133	81	11.926067483762
127	3135	82	13.892129573808
127	3285	83	13.936045407304
127	3287	84	13.893183273086
127	3435	85	13.889124961388
127	3437	86	13.833042053432
127	3590	87	13.039664782253
127	3592	88	12.451307082409
127	3756	89	11.996588498561
127	3758	90	11.530198338915
127	3926	91	11.235030325332
127	3928	92	10.984342136566
127	4099	93	10.439727170964
127	4101	94	8.8718913847214
127	4280	95	8.899018514631
127	4282	96	7.9909682415293
127	4462	97	7.251207953206
127	4464	98	8.3496564380611
127	4644	99	10.181845001406
127	4646	100	12.06212957381
127	4829	101	13.976336714074
127	4831	102	13.908742716364
128	2837	78	2.0509393013455
128	2982	79	1.9893910977687
128	2984	80	1.9431141708884
128	3133	81	1.8790988313477
128	3135	82	1.9660620900462
128	3285	83	0.043915833495557
128	3287	84	-0.042862134217286
128	3435	85	-0.0040583116980262
128	3437	86	-0.056082907956462
128	3590	87	-0.79337727117912
128	3592	88	-0.5883576998438
128	3756	89	-0.45471858384756
128	3758	90	-0.46639015964645
128	3926	91	-0.29516801358278
128	3928	92	-0.2506881887658
128	4099	93	-0.5446149656022
128	4101	94	-1.5678357862427
128	4280	95	0.027127129909662
128	4282	96	-0.90805027310174
128	4462	97	-0.73976028832329
128	4464	98	1.0984484848551
128	4644	99	1.8321885633445
128	4646	100	1.8802845724043
128	4829	101	1.9142071402636
128	4831	102	-0.067593997709919
129	2837	78	4.4483142439603
129	2982	79	5.4354323508198
129	2984	80	6.3932525708783
129	3133	81	7.2428843983977
129	3135	82	8.6102118406059
129	3285	83	2.1797995320176
129	3287	84	1.884423361701
129	3435	85	2.0139397067959
129	3437	86	1.8348652346028
129	3590	87	0.973
129	3592	88	0.973
129	3756	89	0.973
129	3758	90	0.973
129	3926	91	0.973
129	3928	92	0.973
129	4099	93	0.973
129	4101	94	0.973
129	4280	95	1.6625699209631
129	4282	96	0.973
129	4462	97	0.973
129	4464	98	3.7769340489537
129	4644	99	6.1945523237183
129	4646	100	7.3199370532578
129	4829	101	8.4840413916946
129	4831	102	1.8029450990824
130	2982	79	2414.8461739381
130	2984	80	2411.9468780267
130	3133	81	2407.2557718946
130	3135	82	2402.3132644872
130	3285	83	2396.0984851476
130	3287	84	2388.637281624
130	3435	85	2379.8467096724
130	3437	86	2370.3468173424
130	3590	87	2360.8653239175
130	3592	88	2351.3807753129
130	3756	89	2342.0413825306
130	3758	90	2334.9106088879
130	3926	91	2335.806685818
130	3928	92	2346.1647764894
130	4099	93	2356.1929522194
130	4101	94	2367.8342028816
130	4280	95	2380.4529642189
130	4282	96	2391.5788251292
130	4462	97	2402.0468870559
130	4464	98	2411.2653876449
130	4644	99	2420.3791153014
130	4646	100	2427.5282855921
130	4829	101	2431.3599781094
130	4831	102	2433.0455016424
131	2982	79	1578.4618988531
131	2984	80	1579.5265051797
131	3133	81	1581.4583984045
131	3135	82	1586.4644775018
131	3285	83	1592.7591927908
131	3287	84	1600.3163640648
131	3435	85	1609.2200024156
131	3437	86	1618.8420845894
131	3590	87	1628.4455312071
131	3592	88	1638.0520723006
131	3756	89	1647.7811873443
131	3758	90	1658.945959907
131	3926	91	1671.8741231887
131	3928	92	1680.5120231025
131	4099	93	1689.5556831537
131	4101	94	1694.9950559661
131	4280	95	1696.77907757
131	4282	96	1697.9792912649
131	4462	97	1698.9691164251
131	4464	98	1699.8407872161
131	4644	99	1700.7025510259
131	4646	100	1701.2752542486
131	4829	101	1708.7720169658
131	4831	102	1719.8636188591
132	2984	80	4.0267229073465
132	3133	81	5.9477333564631
132	3135	82	7.8212407105433
132	3285	83	9.6026732088782
132	3287	84	11.466286668062
132	3435	85	13.286947636499
132	3437	86	13.562368140693
132	3590	87	13.529235902293
132	3592	88	13.455384539605
132	3756	89	13.491060158082
132	3758	90	13.50869829942
132	3926	91	13.486902267623
132	3928	92	13.544100182424
132	4099	93	13.452367220111
132	4101	94	13.197152949202
132	4280	95	12.369179322584
132	4282	96	10.620125388396
132	4462	97	9.8273371705674
132	4464	98	9.4698311382702
132	4644	99	7.6697963725872
132	4646	100	8.0874702711244
132	4829	101	10.195866306317
132	4831	102	11.974827083301
133	3133	81	1.9210104491166
133	3135	82	1.8735073540802
133	3285	83	1.7814324983349
133	3287	84	1.8636134591838
133	3435	85	1.8206609684369
133	3437	86	0.27542050419428
133	3590	87	-0.033132238399704
133	3592	88	-0.073851362688
133	3756	89	0.035675618476233
133	3758	90	0.017638141338248
133	3926	91	-0.021796031796839
133	3928	92	0.057197914801073
133	4099	93	-0.091732962313108
133	4101	94	-0.2552142709088
133	4280	95	-0.82797362661822
133	4282	96	-1.7490539341879
133	4462	97	-0.79278821782881
133	4464	98	-0.35750603229719
133	4644	99	-1.800034765683
133	4646	100	0.41767389853718
133	4829	101	2.108396035193
133	4831	102	1.7789607769833
134	3133	81	4.1699391246736
134	3135	82	5.0629039791787
134	3285	83	5.7777020757503
134	3287	84	6.9522613836103
134	3435	85	7.7976945860273
134	3437	86	2.8949203803963
134	3590	87	1.8833876959034
134	3592	88	1.7446470970948
134	3756	89	2.1036379544754
134	3758	90	2.0468085785174
134	3926	91	1.9163893625158
134	3928	92	2.1795901060915
134	4099	93	1.6864313721965
134	4101	94	1.1472491504976
134	4280	95	0.973
134	4282	96	0.973
134	4462	97	0.973
134	4464	98	0.973
134	4644	99	0.973
134	4646	100	2.3630859974637
134	4829	101	6.8805213644252
134	4831	102	6.9802560702905
135	3135	82	2414.8840517174
135	3285	83	2412.0108083608
135	3287	84	2407.4277382374
135	3435	85	2402.5740833235
135	3437	86	2396.4932427702
135	3590	87	2389.0606667105
135	3592	88	2380.2840013043
135	3756	89	2370.5628811797
135	3758	90	2360.7775907384
135	3926	91	2350.9979958944
135	3928	92	2341.4452241245
135	4099	93	2334.6822450395
135	4101	94	2337.1085663075
135	4280	95	2347.8320722521
135	4282	96	2358.1756817488
135	4462	97	2370.9685135448
135	4464	98	2384.315308983
135	4644	99	2396.8448967066
135	4646	100	2407.2495121727
135	4829	101	2417.5352250903
135	4831	102	2424.6962694111
136	3135	82	1578.4479903299
136	3285	83	1579.5030302955
136	3287	84	1581.2842201898
136	3435	85	1586.2003039522
136	3437	86	1592.3593577035
136	3590	87	1599.8875332996
136	3592	88	1608.7770862356
136	3756	89	1618.6232416881
136	3758	90	1628.5343928309
136	3926	91	1638.4397751177
136	3928	92	1648.5443628915
136	4099	93	1660.3212556215
136	4101	94	1673.1095294924
136	4280	95	1682.0156321824
136	4282	96	1691.3437583046
136	4462	97	1695.4635364218
136	4464	98	1697.2387827905
136	4644	99	1698.4772334993
136	4646	100	1699.4610593719
136	4829	101	1700.4336422151
136	4831	102	1701.0174454451
137	3285	83	3.8169569386458
137	3287	84	5.8201201644269
137	3435	85	7.6568561983863
137	3437	86	9.4728654203107
137	3590	87	11.482040745815
137	3592	88	13.28880034773
137	3756	89	13.928496107168
137	3758	90	13.959875884824
137	3926	91	13.889444849875
137	3928	92	13.92365738506
137	4099	93	13.981699167432
137	4101	94	13.93769388142
137	4280	95	13.966332683004
137	4282	96	13.932506729781
137	4462	97	13.916154631726
137	4464	98	13.153427309647
137	4644	99	11.570929406253
137	4646	100	10.432373373366
137	4829	101	9.2314407950685
137	4831	102	6.8716367210463
138	3287	84	2.0031632257812
138	3435	85	1.8367360339593
138	3437	86	1.8160092219245
138	3590	87	2.009175325504
138	3592	88	1.8067596019153
138	3756	89	0.63969575943801
138	3758	90	0.031379777656403
138	3926	91	-0.070431034949143
138	3928	92	0.034212535184343
138	4099	93	0.058041782372165
138	4101	94	-0.044005286011378
138	4280	95	0.02863880158402
138	4282	96	-0.033825953223277
138	4462	97	-0.01635209805565
138	4464	98	-0.76272732207853
138	4644	99	-1.5824979033941
138	4646	100	-1.1385560328864
138	4829	101	-1.200932578298
138	4831	102	-2.3598040740222
139	3287	84	4.2187098686395
139	3435	85	4.910169108938
139	3437	86	5.791375069684
139	3590	87	7.3634665133753
139	3592	88	7.7541670228011
139	3756	89	4.1788440727956
139	3758	90	2.1403107369706
139	3926	91	1.7917987802914
139	3928	92	2.1458442449271
139	4099	93	2.2325490149334
139	4101	94	1.8846595852561
139	4280	95	2.1317941083911
139	4282	96	1.9183647077544
139	4462	97	1.9754342330866
139	4464	98	0.973
139	4644	99	0.973
139	4646	100	0.973
139	4829	101	0.973
139	4831	102	0.973
140	3435	85	2414.8736667775
140	3437	86	2411.9596294151
140	3590	87	2407.2080569622
140	3592	88	2402.1523542702
140	3756	89	2395.9190397914
140	3758	90	2388.3765358754
140	3926	91	2379.4748098332
140	3928	92	2369.6962625302
140	4099	93	2359.9308093331
140	4101	94	2350.1364718492
140	4280	95	2340.6805613053
140	4282	96	2334.4833669321
140	4462	97	2338.0362796045
140	4464	98	2348.6981854652
140	4644	99	2359.0649976305
140	4646	100	2372.1668423832
140	4829	101	2385.9928241475
140	4831	102	2398.5566237797
141	3435	85	1578.4518036256
141	3437	86	1579.5218229368
141	3590	87	1581.5067270575
141	3592	88	1586.6274573831
141	3756	89	1592.9409462158
141	3758	90	1600.5804635864
141	3926	91	1609.5966857178
141	3928	92	1619.5010069897
141	4099	93	1629.3920657374
141	4101	94	1639.3123802878
141	4280	95	1649.5232503135
141	4282	96	1661.5189767601
141	4462	97	1673.8587137703
141	4464	98	1682.7967147715
141	4644	99	1692.1457656417
141	4646	100	1695.6426487369
141	4829	101	1697.4384445315
141	4831	102	1698.6390887247
142	3437	86	4.0343364698305
142	3590	87	6.1070091192196
142	3592	88	7.9887447326775
142	3756	89	9.6134468203811
142	3758	90	11.695927346992
142	3926	91	13.549136951841
142	3928	92	13.891744130468
142	4099	93	13.983072519409
142	4101	94	13.933561631758
142	4280	95	13.880611653517
142	4282	96	13.92297302613
142	4462	97	13.914829877054
142	4464	98	13.897545429696
142	4644	99	13.983295602682
142	4646	100	13.872217488389
142	4829	101	13.916008887449
142	4831	102	11.623073847277
143	3590	87	2.0726726493891
143	3592	88	1.8817356134579
143	3756	89	1.6247020877036
143	3758	90	2.0824805266107
143	3926	91	1.8532096048491
143	3928	92	0.34260717862705
143	4099	93	0.091328388941474
143	4101	94	-0.049510887651705
143	4280	95	-0.05294997824123
143	4282	96	0.042361372613813
143	4462	97	-0.0081431490764956
143	4464	98	-0.017284447357524
143	4644	99	0.085750172985717
143	4646	100	-0.11107811429305
143	4829	101	0.043791399060284
143	4831	102	-2.2929350401719
144	3590	87	4.476179949182
144	3592	88	5.1653576997334
144	3756	89	5.4200034164505
144	3758	90	7.6919386656592
144	3926	91	8.0447510818254
144	3928	92	3.1748085237727
144	4099	93	2.3448821042799
144	4101	94	1.8657939236033
144	4280	95	1.8495287503317
144	4282	96	2.1731117278761
144	4462	97	2.0028329516069
144	4464	98	1.9704897131333
144	4644	99	2.3261114203532
144	4646	100	1.6544487458673
144	4829	101	2.1771266978447
144	4831	102	0.973
145	3592	88	2414.8836325099
145	3756	89	2411.986930697
145	3758	90	2407.369780679
145	3926	91	2402.59750627
145	3928	92	2396.4303103612
145	4099	93	2388.852558142
145	4101	94	2379.8589329049
145	4280	95	2370.0705877349
145	4282	96	2360.2918325015
145	4462	97	2350.4993704215
145	4464	98	2340.9974445211
145	4644	99	2334.5638607559
145	4646	100	2337.6635284805
145	4829	101	2348.3621487275
145	4831	102	2358.7190812493
146	3592	88	1578.4481442608
146	3756	89	1579.5117980484
146	3758	90	1581.3429232119
146	3926	91	1586.1765797343
146	3928	92	1592.4230995635
146	4099	93	1600.0983186094
146	4101	94	1609.2076219646
146	4280	95	1619.1218671268
146	4282	96	1629.0263990043
146	4462	97	1638.9448140291
146	4464	98	1649.1175904777
146	4644	99	1661.0342117166
146	4646	100	1673.5576948216
146	4829	101	1682.4936684249
146	4831	102	1691.8338095853
147	3756	89	4.0013211675714
147	3758	90	5.8143858679225
147	3926	91	7.5613634765687
147	3928	92	9.7458537510484
147	4099	93	11.704442393056
147	4101	94	13.710967943585
147	4280	95	13.967370514323
147	4282	96	13.97242824421
147	4462	97	13.999199340187
147	4464	98	13.962116121056
147	4644	99	13.933822563267
147	4646	100	13.901684735613
147	4829	101	13.991085348653
147	4831	102	13.975537452945
148	3758	90	1.8130647003511
148	3926	91	1.7469776086463
148	3928	92	2.1844902744796
148	4099	93	1.9585886420077
148	4101	94	2.0065255505289
148	4280	95	0.25640257073762
148	4282	96	0.0050577298877759
148	4462	97	0.026771095977166
148	4464	98	-0.037083219131455
148	4644	99	-0.028293557788711
148	4646	100	-0.032137827654369
148	4829	101	0.089400613040198
148	4831	102	-0.015547895708588
149	3758	90	3.9492323757996
149	3926	91	4.6981943303404
149	3928	92	6.7964762074918
149	4099	93	7.3474754039101
149	4101	94	8.6397759745869
149	4280	95	2.8985913333218
149	4282	96	2.0530540416967
149	4462	97	2.1290860466151
149	4464	98	1.9101876746331
149	4644	99	1.9370663178208
149	4646	100	1.9211304105346
149	4829	101	2.3393792765675
149	4831	102	1.9839741802452
150	3926	91	2414.8606245739
150	3928	92	2411.8764565148
150	4099	93	2407.2247922372
150	4101	94	2402.2329132988
150	4280	95	2395.904481165
150	4282	96	2388.1911267573
150	4462	97	2379.0311558184
150	4464	98	2369.2309284883
150	4644	99	2359.4539213619
150	4646	100	2349.6644090366
150	4829	101	2340.2675432409
150	4831	102	2334.3695889099
151	3926	91	1578.4565926548
151	3928	92	1579.5523635913
151	4099	93	1581.4897765294
151	4101	94	1586.5458621858
151	4280	95	1592.9556920985
151	4282	96	1600.7682574801
151	4462	97	1610.0460461145
151	4464	98	1619.9723262675
151	4644	99	1629.8750875536
151	4646	100	1639.7905148827
151	4829	101	1650.0519777192
151	4831	102	1662.2041921625
152	3928	92	4.0929231651139
152	4099	93	5.9906896421535
152	4101	94	7.9514762463106
152	4280	95	9.9005059713463
152	4282	96	11.902643679642
152	4462	97	13.940859806718
152	4464	98	13.908840599209
152	4644	99	13.897563728902
152	4646	100	13.925334702113
152	4829	101	13.969999221691
152	4831	102	13.873366627463
153	4099	93	1.8977664770395
153	4101	94	1.9607866041572
153	4280	95	1.9490297250356
153	4282	96	2.0021377082961
153	4462	97	2.0382161270757
153	4464	98	-0.032019207509006
153	4644	99	-0.011276870307046
153	4646	100	0.027770973211155
153	4829	101	0.044664519578218
153	4831	102	-0.096632594228721
154	4099	93	4.158764086306
154	4101	94	5.2974884507475
154	4280	95	6.3276769708033
154	4282	96	7.5831667564525
154	4462	97	8.880686804981
154	4464	98	1.9222012590366
154	4644	99	1.990612754222
154	4646	100	2.1244111998222
154	4829	101	2.1861494492654
154	4831	102	1.7028330357734
155	4101	94	2414.8345383538
155	4280	95	2411.7921256482
155	4282	96	2407.0864814951
155	4462	97	2402.132386612
155	4464	98	2395.7983188427
155	4644	99	2388.1195620884
155	4646	100	2379.0020808444
155	4829	101	2369.2045644406
155	4831	102	2359.3950672023
156	4101	94	1578.4661713783
156	4280	95	1579.5833294457
156	4282	96	1581.6298662564
156	4462	97	1586.6476818705
156	4464	98	1593.0632199049
156	4644	99	1600.8407426309
156	4646	100	1610.0754950577
156	4829	101	1619.9990294157
156	4831	102	1629.9346987093
157	4280	95	4.2052558286512
157	4282	96	6.002893242219
157	4462	97	7.883161900444
157	4464	98	9.8673883035709
157	4644	99	11.853042240334
157	4646	100	13.869080203711
157	4829	101	13.883913346287
157	4831	102	13.920034354662
158	4282	96	1.7976374135679
158	4462	97	1.880268658225
158	4464	98	1.984226403127
158	4644	99	1.9856539367628
158	4646	100	2.0160379633773
158	4829	101	0.014833142575785
158	4831	102	0.036121008375193
159	4282	96	4.0201994287793
159	4462	97	5.1077529096115
159	4464	98	6.3933259660444
159	4644	99	7.5078138857943
159	4646	100	8.7639896884138
159	4829	101	2.0766261205432
159	4831	102	2.15184739874
160	4462	97	2414.8810770222
160	4464	98	2412.0153888349
160	4644	99	2407.3710593774
160	4646	100	2402.5073859703
160	4829	101	2396.3145508688
160	4831	102	2388.7267279918
161	4462	97	1578.4490826223
161	4464	98	1579.5013483688
161	4644	99	1581.3416280663
161	4646	100	1586.2678591823
161	4829	101	1592.5403479822
161	4831	102	1600.2257672166
162	4464	98	3.9195603011693
162	4644	99	5.8047475024131
162	4646	100	7.789297424702
162	4829	101	9.6794611797347
162	4831	102	11.659319502495
163	4644	99	1.8851872012438
163	4646	100	1.9845499222889
163	4829	101	1.8901637550327
163	4831	102	1.9798583227607
164	4644	99	4.0453611473868
164	4646	100	5.2548522348047
164	4829	101	6.0699942565079
164	4831	102	7.3820588240483
165	4646	100	2414.8650521714
165	4829	101	2411.9260536652
165	4831	102	2407.2993464565
166	4646	100	1578.4549668636
166	4829	101	1579.5341517767
166	4831	102	1581.414263376
167	4829	101	3.9747482432421
167	4831	102	5.9205547706802
168	4831	102	1.9458065274381
169	4831	102	4.1911604728786

